17

C    0.97876600  -0.22308700  -0.40355300
C    2.20459900   0.00540000   0.47440900
C    2.89283300   1.30942200   0.14637000
O    4.08051600   1.47404900   0.85557600
C    4.73971500   2.65131200   0.75367100
C    5.25317800   2.87751500  -0.73236600
O    4.73249500   2.38868700  -1.67523900
H    0.48523800  -1.16079500  -0.11776600
H    1.24852000  -0.30167700  -1.46726300
H    0.24103700   0.58555900  -0.29227800
H    2.92928500  -0.81549900   0.36374800
H    1.91829800   0.03996000   1.53879500
H    2.25249000   2.20849400   0.24017100
H    3.23253600   1.32023900  -0.94294600
H    5.61218300   2.64869600   1.42096000
H    4.10738600   3.54716100   0.92426700
H    6.12397500   3.56935600  -0.80454600