20
Properties=species:S:1:pos:R:3 pbc="F F F"
C        2.48306894      -0.32672986       1.39559937
C        2.53646922       0.24894992      -0.01256000
C        2.78639889       1.74424934      -0.01002000
C        1.55923939       2.59170914       0.18715993
C        4.03786850       2.21517897      -0.18989994
C        4.50970840       3.63282847      -0.22672991
N        5.47753811       3.83893847       0.84111971
H        2.30525899      -1.40590942       1.35433948
H        1.67895937       0.12446996       1.98492932
H        3.42776871      -0.16144995       1.92431939
H        1.59871936       0.03233999      -0.53835976
H        3.32197857      -0.26965988      -0.57669973
H        0.83176970       2.38773918      -0.60605973
H        1.76127934       3.66433859       0.17039993
H        1.09045959       2.36546898       1.15016949
H        4.84168816       1.49096942      -0.32803988
H        3.70129871       4.35993862      -0.12702996
H        4.99432802       3.81896853      -1.19116962
H        5.00643778       3.70085859       1.73444939
H        5.77975798       4.81090784       0.83000970
