16

C    2.51242900  -0.92927900  -0.66809000
N    3.15836700  -0.33748200   0.49238500
C    3.80495900   0.82225100   0.51904300
C    3.83995800   1.79163100  -0.60296000
C    2.84743000   2.65078100   0.08532700
N    3.18548300   3.75688200   0.74804400
H    2.14296800  -1.92383300  -0.39583500
H    3.22360300  -1.04249400  -1.49854000
H    1.65489500  -0.32497900  -1.00234100
H    3.09433600  -0.84695200   1.36792000
H    4.32838200   1.07281500   1.44443900
H    3.48511500   1.39512700  -1.56217100
H    4.82056900   2.26932800  -0.73649200
H    1.79047700   2.37721600   0.06781800
H    4.11636500   4.15497100   0.68613100
H    2.50656600   4.26190100   1.30598200