17

C    1.85880900   0.17622100  -0.86193100
O    1.66755700  -0.09255100   0.56423600
C    0.55246000   0.06763200  -0.20636600
C   -0.39886100   1.26275800   0.15101800
C   -1.79141100   0.72161400  -0.17192100
C   -1.71746800  -0.73889900   0.25764300
C   -0.36990600  -1.21290200  -0.26525200
H    2.30243000   1.16248000  -1.03715800
H    2.30677300  -0.67446000  -1.38669400
H   -0.27584300   1.45412600   1.22767300
H   -0.07659100   2.15026400  -0.41174300
H   -2.56398100   1.29548900   0.35888000
H   -1.99285600   0.80485900  -1.25100000
H   -2.52586200  -1.36942000  -0.14419700
H   -1.75859600  -0.82614100   1.35437500
H   -0.36910900  -1.43977400  -1.34742200
H    0.07625500  -2.06390800   0.26727900