15
Properties=species:S:1:pos:R:3 pbc="F F F"
C        0.80284971       1.40617943      -0.58978975
C       -0.33097988       0.91925961       0.27240989
C       -1.37062943      -0.02321999      -0.23927991
N       -0.75903970      -1.35026944      -0.02917999
C        0.69381976      -1.19272947      -0.22908992
C        0.96346962       0.18561992       0.27883989
H        0.73315972       1.27334952      -1.66315937
H        1.31459951       2.31247926      -0.28779989
H       -0.62285978       1.47555935       1.15132952
H       -2.31285906       0.05946998       0.31216988
H       -1.57209945       0.13777995      -1.30430949
H       -0.90271962      -1.59319937       0.95083964
H        1.24454951      -1.95425928       0.33021986
H        0.94376963      -1.28708959      -1.29086947
H        1.58490944       0.22666991       1.16118956
