10
Properties=species:S:1:pos:R:3 pbc="F F F"
N        0.90890962       0.02103999      -0.00705000
C        2.06907916       0.02123999      -0.00358000
C        3.49254870       0.02231999       0.00068000
C        4.32196808       1.12031960       0.00395000
N        5.59507799       0.62540978       0.00740000
N        5.64409781      -0.71870971       0.00658000
C        4.35824823      -1.08420968       0.00247000
H        4.12860870       2.18388915       0.00414000
H        6.47159719       1.13902962       0.01040000
H        4.11288834      -2.13923931       0.00097000
