13
Properties=species:S:1:pos:R:3 pbc="F F F"
C       -1.35831952       0.09622996      -0.39011985
C       -0.46796983      -0.68235976       0.65234971
N       -0.54968977       0.62621975       1.45217943
C       -0.29805991       1.18028963       0.04214999
C        1.03926969       0.62281978      -0.27206990
C        0.92362964      -0.64376980       0.14299995
H       -1.32389951      -0.24717991      -1.42865944
H       -2.40063906       0.28431991      -0.10633996
H       -0.83607972      -1.58777940       1.13304961
H       -1.47692943       0.83126968       1.81980932
H       -0.48686981       2.24034905      -0.12136996
H        1.88806927       1.12368953      -0.70393974
H        1.65445936      -1.43312943       0.13397995
