15
Properties=species:S:1:pos:R:3 pbc="F F F"
C        1.91585934      -0.00019000      -0.46333984
C        0.87188965       0.77758968       0.27759990
C        0.87174970      -0.77792972       0.27752990
C       -0.60155976      -0.97852963      -0.11957996
C       -1.01613963      -0.00029000      -1.29608953
C       -0.60143977       0.97849965      -0.11948995
O       -1.42945945      -0.00009000       0.72029972
H        1.89503932      -0.00019000      -1.54714942
H        2.92418909      -0.00019000      -0.06166998
H        1.09057963       1.26806951       1.21698952
H        1.09045959      -1.26851952       1.21696961
H       -1.02127957      -1.98543930      -0.12160996
H       -2.07360911       0.00004000      -1.57503939
H       -0.38431984      -0.00041000      -2.18517923
H       -1.02118957       1.98522925      -0.12144995
