18

C    1.01787000  -0.01894200   0.34663700
C    2.40310900   0.18511600  -0.16814200
C    2.62858100   0.01737300  -1.63105100
C    3.32320100   1.07187200   0.63405100
C    3.94553000  -0.04242200   1.54320900
C    3.47850900  -1.19539800   0.72545500
H    0.96073100  -0.02497200   1.44372400
H    0.53874100  -0.91544900  -0.06916100
H    0.43227600   0.85481700   0.00035500
H    3.68931700   0.04368200  -1.91309000
H    2.14749400   0.89355900  -2.11010900
H    2.14112200  -0.88036500  -2.03453500
H    2.78343400   1.82705500   1.22374000
H    4.08601500   1.54977900   0.00659200
H    5.03937100   0.04277100   1.60019800
H    3.51056700  -0.03266000   2.54989500
H    4.11538700  -1.56898800  -0.08301300
H    2.73930600  -1.90695800   1.10827300