19
Properties=species:S:1:pos:R:3 pbc="F F F"
C        1.14053953       0.26406991       0.21040992
C        2.59793901       0.02505999      -0.19057994
C        2.64747906      -0.66312975      -1.53468943
C        3.16882873      -1.88071930      -1.73660934
C        3.35646892       1.33340943      -0.18498993
C        4.19428825       1.72322941       1.00878966
C        4.86200809       1.34489954      -0.28287989
H        1.08169961       0.74130970       1.19669950
H        0.58270979      -0.67886978       0.25949991
H        0.62859976       0.92198968      -0.50184983
H        3.03783870      -0.63986975       0.56522977
H        2.24012899      -0.11791996      -2.38378906
H        3.59418869      -2.46098900      -0.92348963
H        3.18391895      -2.32156920      -2.72862911
H        2.82977891       2.12187934      -0.71394974
H        4.27933836       1.03162956       1.83842933
H        4.20874834       2.76660895       1.30023956
H        5.32306767       2.13193917      -0.86971968
H        5.38483810       0.39499986      -0.33132988
