16

C    2.38992700  -0.64975400   1.54000100
C    2.45228100  -0.16765200   0.05553100
C    2.85006000   1.24723600   0.05622800
C    1.83379600   2.30453900   0.03759900
C    4.24515600   1.55178200   0.09986300
C    4.71711500   2.86221400   0.16432000
N    5.10397200   3.96441600   0.21959100
H    2.07597900  -1.70181700   1.52835800
H    1.65744300  -0.07029700   2.11741900
H    3.36940000  -0.58613100   2.03342400
H    1.46028900  -0.28837600  -0.40181100
H    3.18723600  -0.78475700  -0.48318300
H    1.52873700   2.41023300  -1.02657400
H    2.18450600   3.28512700   0.38313000
H    0.92150200   1.98856900   0.56590900
H    4.98663300   0.74467200   0.08003300