17
Properties=species:S:1:pos:R:3 pbc="F F F"
C        2.24065924       0.62462974       2.05247927
C        2.27727914       0.92013961       0.56478977
O        3.02247882       2.12118912       0.31660989
C        4.37193823       1.96828926       0.19511993
O        4.97320795       0.90690964       0.28080991
C        5.00418806       3.31547880      -0.06011998
C        6.51727724       3.22717881      -0.15445994
H        1.61505938      -0.24828991       2.25955915
H        1.84501934       1.48289943       2.60576892
H        3.24638867       0.43260983       2.43987894
H        1.25992954       1.09438956       0.19965991
H        2.68268919       0.07515997      -0.00329000
H        4.73239803       3.98709869       0.76122975
H        4.60319853       3.71446848      -0.99776959
H        6.94608736       2.82675886       0.77012968
H        6.94673729       4.21815825      -0.33012989
H        6.82219744       2.57109904      -0.97638965
