19
Properties=species:S:1:pos:R:3 pbc="F F F"
C        2.88011885      -0.75375974       1.38209939
N        2.60062885      -0.13380994       0.09107997
C        3.02697897       1.28036952       0.05720998
C        4.57391834       1.48734951       0.02519999
N        5.18253803       0.58611977      -0.96539968
C        4.92068815       2.93974876      -0.19592993
C        5.70563793       3.45652866      -1.15263963
H        2.48055911      -1.77324939       1.38703942
H        2.40678906      -0.20547992       2.20367908
H        3.95526862      -0.82891965       1.57213950
H        1.59304941      -0.16576993      -0.06841998
H        2.58547902       1.83200932       0.89673972
H        2.60022902       1.71671939      -0.85579973
H        4.98014784       1.20936954       1.00560963
H        4.79180813       0.82449973      -1.87662935
H        4.77562809      -0.33699989      -0.78003973
H        4.49074841       3.62993860       0.52770978
H        6.19510746       2.83196902      -1.89276934
H        5.89383793       4.52457809      -1.20041955
