19
Properties=species:S:1:pos:R:3 pbc="F F F"
C        0.87776971      -0.37847987       0.09474996
C        2.36273909      -0.20151994      -0.22718993
C        2.77745891      -1.18413949      -1.32341957
C        2.68081903       1.23315954      -0.66524971
C        2.50155926       2.20929933       0.46798983
N        1.66031945       3.18833876       0.36288986
N        1.63009942       3.97656870       1.46056938
H        0.57463980       0.25978991       0.93122965
H        0.66344970      -1.41492951       0.37905985
H        0.25020993      -0.12885995      -0.76784968
H        2.93599892      -0.43741983       0.67818969
H        2.23221922      -0.99409962      -2.25494933
H        2.57684898      -2.21707916      -1.01869965
H        3.84906864      -1.10168970      -1.53575945
H        2.05857921       1.53398931      -1.51585948
H        3.73052859       1.30389941      -0.97392964
H        3.11962891       2.04875922       1.37109947
H        0.81517965       4.59370852       1.40327954
H        2.43034887       4.61477852       1.46582937
