19
Properties=species:S:1:pos:R:3 pbc="F F F"
C        1.07166958       0.03413999       0.27166989
C        2.43116903       0.22868992      -0.41213983
C        2.65651894      -0.60359979      -1.65803933
C        1.79195940      -1.43147945      -2.26078916
C        2.69983912       1.70374942      -0.69558972
C        1.75232935       2.42974925      -1.61559939
C        3.74986863       2.34145927      -0.14891995
H        0.99199963       0.66200972       1.16695952
H        0.94231963      -1.00684965       0.59031975
H        0.23422992       0.28699991      -0.38838986
H        3.18011880      -0.12399995       0.31153989
H        3.65128851      -0.51057982      -2.09435916
H        0.78370976      -1.59145939      -1.89495933
H        2.08522916      -1.97684932      -3.15304899
H        0.74925971       2.47350907      -1.18201959
H        1.69343936       1.93100929      -2.58753896
H        2.07331920       3.46099877      -1.79855931
H        4.44428825       1.83319938       0.51326978
H        3.94653845       3.39104867      -0.34962988
