14
Properties=species:S:1:pos:R:3 pbc="F F F"
C        1.03727961      -0.03277999      -0.04408998
C        2.52790904      -0.03225999      -0.02178999
C        3.30128884      -0.66231972      -1.14865959
C        3.30099893       0.83978969      -0.98464966
C        4.53732824       1.52681935      -0.54756981
O        5.36559820       1.90678930      -1.36451948
H        0.65217972       0.78369969       0.57464981
H        0.65525973      -0.97582966       0.35905987
H        0.63967973       0.09060996      -1.05685961
H        2.91136885      -0.16745993       0.98365963
H        2.75880885      -1.07444966      -1.99247932
H        4.20803833      -1.20628953      -0.90636969
H        2.73540878       1.40237939      -1.72131932
H        4.66498852       1.68666935       0.53550982
