20
Properties=species:S:1:pos:R:3 pbc="F F F"
C        0.88481969       0.71728969       0.08302997
N        2.32748914       0.51726979       0.08217997
C        3.03364873       1.77847934      -0.16533993
C        4.55164814       1.55021942      -0.16113994
C        5.30941820       2.83181882      -0.38379985
C        6.15088797       3.03708887      -1.40972948
C        6.91700745       4.30350828      -1.61903942
H        0.38492987      -0.23628992       0.28020990
H        0.52998984       1.08988965      -0.88370967
H        0.58175975       1.41598940       0.86983967
H        2.57250905      -0.15534995      -0.64417976
H        2.77366877       2.50657892       0.61332983
H        2.72854900       2.19763923      -1.13257957
H        4.81656837       0.80994976      -0.92656964
H        4.86173820       1.13325953       0.80540973
H        5.16028786       3.61457872       0.35711986
H        6.31137753       2.25260901      -2.14480925
H        6.70343733       5.04968786      -0.84761971
H        6.66301727       4.73547792      -2.59164906
H        7.99089718       4.09503841      -1.60470939
