14
Properties=species:S:1:pos:R:3 pbc="F F F"
C        0.39111987       1.34914947       0.32566988
C        1.39469945       0.35254985      -0.22768992
N        0.96356964      -0.97226965       0.14653994
C       -0.36876988      -1.25387955       0.19461994
N       -1.34865952      -0.43417984       0.09302996
C       -1.00837958       0.97533965      -0.14793994
H        0.64235973       2.36547923       0.00450000
H        0.42109984       1.33444941       1.42254937
H        2.39132905       0.54836977       0.17988993
H        1.45600939       0.42657983      -1.31901956
H        1.60483944      -1.73568940      -0.03373998
H       -0.56902975      -2.32750916       0.35393986
H       -1.11620951       1.18434954      -1.21876955
H       -1.73964930       1.60176945       0.37500986
