13

C    1.01959800   0.18565800  -0.20612200
C    2.47557300  -0.08062500   0.05742100
C    3.44682100  -0.81220300  -0.87272600
N    3.47554300   0.59710800  -0.69974700
C    3.55103100   1.77253300  -1.51415400
O    2.77382300   2.65248400  -1.31516800
H    0.69511700   1.10789400   0.29379100
H    0.44544600  -0.65379900   0.21083700
H    0.81171800   0.26596100  -1.28183300
H    2.76137900  -0.20206700   1.11431700
H    3.17396900  -1.16333200  -1.87655800
H    4.24522700  -1.37690300  -0.37157700
H    4.35036200   1.73575100  -2.27740800