13
Properties=species:S:1:pos:R:3 pbc="F F F"
C        0.98490959       0.00279000      -0.07933997
C        2.49640894      -0.03194999       0.05255998
C        3.10534883      -1.23660958      -0.55825979
C        3.93184853      -0.84486967      -1.51638937
O        4.02774858       0.51422983      -1.72433937
C        3.15722871       1.04447961      -0.79576969
O        2.94925880       2.24614930      -0.67987978
H        0.58380973       0.92819965       0.34793985
H        0.52495980      -0.84076965       0.44613984
H        0.66653979      -0.03469999      -1.12760961
H        2.81982875       0.07433998       1.09268963
H        2.91781902      -2.25749898      -0.26225990
H        4.54870844      -1.44554937      -2.16436911
