13

C    0.98799400  -0.02494800  -0.05228600
C    2.50413300   0.00439000  -0.00977000
C    2.99210700   1.53541700   0.17663700
N    4.38162800   1.59425400   0.22032500
H    0.67954400  -1.07430500  -0.17938300
H    0.58484800   0.54776600  -0.89888200
H    0.53889100   0.34585000   0.87942800
H    2.95234400  -0.37022100  -0.94085400
H    2.90638800  -0.57155500   0.83558700
H    2.56190400   1.88751300   1.12521900
H    2.61032600   2.09402200  -0.69002000
H    4.89758600   1.46183400   1.09471100
H    4.94380300   1.65720000  -0.63307200