15
Properties=species:S:1:pos:R:3 pbc="F F F"
C        0.90647966       2.72881913       1.37425947
N        2.33455920       2.75851893       1.07355964
C        2.72496891       1.83748937       0.27011988
N        4.00624847       1.64667940      -0.15370993
C        5.03648806       2.63148904       0.09004997
C        6.31333780       2.13818932      -0.44606984
C        7.35423708       1.73032928      -0.88662964
H        0.75412971       3.02495885       2.41676903
H        0.45520982       1.73817933       1.24801958
H        0.37526986       3.44333863       0.73805976
H        2.03545928       1.09189951      -0.16660993
H        4.14047861       1.08297956      -0.98394960
H        5.13542795       2.81977892       1.16492951
H        4.77273846       3.57704878      -0.39682987
H        8.27784729       1.36635947      -1.27320957
