13
Properties=species:S:1:pos:R:3 pbc="F F F"
C        1.10338962       0.01499999       0.16204995
C        2.40370917       0.03760999      -0.13471994
O        3.13701892       1.20083952      -0.26973990
C        4.34811831       0.76260972      -0.91953963
C        4.62597847      -0.69691974      -0.56642979
C        3.23631883      -1.16626954      -0.33645988
O        2.86498880      -2.32421923      -0.26761988
H        0.56957978      -0.92459965       0.26598990
H        0.55156976       0.93670964       0.30595988
H        4.21432829       0.88519967      -2.00181913
H        5.17382812       1.41078949      -0.60838979
H        5.12003803      -1.22664952      -1.38335943
H        5.19434786      -0.78776968       0.36366987
