14
Properties=species:S:1:pos:R:3 pbc="F F F"
C        0.33285987      -1.44345951       0.05100998
C       -1.12692964      -0.95737964      -0.04636998
C       -1.31718946       0.53275979      -0.00322000
C       -0.29172990       1.39494956       0.01295999
C        1.07438958       0.93933964      -0.01528999
C        1.37854958      -0.36524984       0.00409000
H        0.52409977      -2.15545940      -0.76134974
H        0.46093982      -2.00440931       0.98538965
H       -1.70609939      -1.41016948       0.76764971
H       -1.56657946      -1.33183944      -0.97933966
H       -2.33635902       0.90806967       0.00812000
H       -0.46733981       2.46641898       0.03963998
H        1.85755932       1.69153929      -0.04468998
H        2.41918921      -0.67581975      -0.00735000
