17

C    3.11402600   0.71095300   2.91613400
N    3.85184400   0.80529900   1.70112600
C    3.60770100   1.71827600   0.62053300
C    2.92850900   3.01631500   1.02182900
C    4.93381600   1.88890500  -0.14171100
O    5.52174400   0.61981800  -0.17295400
H    3.43318600  -0.16511800   3.48997500
H    2.03337900   0.66060700   2.69547900
H    3.27209600   1.62933300   3.51226800
H    4.62555600   0.15349800   1.48601700
H    2.93219900   1.13830200  -0.05350200
H    3.54288400   3.58147000   1.73817900
H    1.93267200   2.84939200   1.45347100
H    2.79509400   3.63613800   0.12507500
H    5.56108400   2.62888100   0.38885400
H    4.70738300   2.28415500  -1.14538900
H    6.35422100   0.62583500  -0.65652000