15
Properties=species:S:1:pos:R:3 pbc="F F F"
C        0.98588967       0.01659999      -0.06981997
C        2.50414896      -0.00955000       0.05317998
N        2.93626881      -1.25705957       0.72273976
C        3.41660857      -0.87684971       2.06629920
C        3.53337884       0.60212976       2.04241920
C        3.01737905       1.09121954       0.91421962
H        0.63020974      -0.82012969      -0.68213969
H        0.65026975       0.94532967      -0.54572982
H        0.49358982      -0.05139998       0.90819961
H        2.95636892       0.04756998      -0.94283968
H        3.73838854      -1.61610949       0.20677991
H        4.38116837      -1.34990954       2.27515912
H        2.69652891      -1.19511962       2.82585907
H        3.95220852       1.18888950       2.84672880
H        2.95903897       2.13982916       0.65811974
