17

C    1.05747200   0.06076000  -0.00332100
C    2.53385500  -0.16593200   0.04601600
C    3.07753200  -1.49012800   0.03394200
C    2.31821600  -2.61776300  -0.02180300
C    3.38360800   0.96402500   0.10545300
C    4.79306000   0.97072500   0.15634900
C    5.48649300   2.15252900   0.21146200
H    0.80565000   1.12742200   0.01175900
H    0.56217200  -0.42152400   0.85430200
H    0.62727500  -0.38118900  -0.91598600
H    4.16168800  -1.61019300   0.07166000
H    1.22640700  -2.59254200  -0.06200200
H    2.78871100  -3.60376800  -0.02810800
H    2.89059100   1.94203600   0.11243000
H    5.35670900   0.03499400   0.15248800
H    4.96902600   3.11658200   0.21753300
H    6.57819400   2.16682700   0.25097500