15

N    1.39855500   0.05270300  -0.54539000
C    2.24611000   0.14877600   0.59631200
C    2.82408900   1.54131300   0.41778200
C    1.97992400   2.60311900   0.64519900
C    4.16217300   1.75586800  -0.09264900
C    5.06670800   0.78708800  -0.34343900
H    0.38558400   0.03231900  -0.47106400
H    1.79391800   0.04731700  -1.48140000
H    3.01859300  -0.63405400   0.61814400
H    1.65851700   0.06059400   1.51803000
H    0.94909400   2.45606000   0.97703800
H    2.33354500   3.63363800   0.55020800
H    4.43951500   2.79694700  -0.28449400
H    4.85786800  -0.27852100  -0.21819300
H    6.06782200   1.04449800  -0.69678600