17

C    0.97447900  -0.26341400   0.24367500
C    2.38354200   0.26874600  -0.09148900
C    2.99581300  -0.85809500  -1.04399700
O    2.82126200  -0.91029600  -2.21178400
C    2.46955300   1.55783500  -0.79544500
C    1.63244200   1.79304200  -1.97852600
C    3.42121300   2.49027000  -0.37775200
H    0.48247500   0.44021400   0.92983000
H    1.04625000  -1.23481400   0.75219500
H    0.35654300  -0.38817300  -0.65504600
H    3.01047500   0.26988600   0.81160800
H    3.55491200  -1.63381300  -0.47125600
H    1.88756500   0.98747700  -2.71013400
H    1.78870800   2.77309500  -2.44262600
H    0.56297000   1.63329800  -1.76618100
H    4.11089100   2.27282300   0.44304300
H    3.48254300   3.47602500  -0.84763000