17
Properties=species:S:1:pos:R:3 pbc="F F F"
C        0.81514972       0.56386977      -0.33781987
N        2.23658919       0.33844987      -0.42989984
C        3.16967893       1.31172955      -0.23432992
N        3.02614880       2.58053899      -0.34447986
C        4.51590872       0.81357968       0.13149995
C        5.25186777       1.40404952       1.31181955
C        4.71359825       0.00821000       1.39653945
H        0.27854991      -0.36132985      -0.56878978
H        0.48670980       1.32705951      -1.05081964
H        0.54000980       0.87626970       0.67375976
H        2.52456903      -0.59434974      -0.15224995
H        2.07032919       2.79106879      -0.63016975
H        5.12823820       0.54997975      -0.72571975
H        4.75578833       2.18454909       1.87810934
H        6.32252789       1.54084933       1.21640956
H        5.42287779      -0.81066972       1.36931944
H        3.86510849      -0.15574995       2.05036926
