17
Properties=species:S:1:pos:R:3 pbc="F F F"
C        0.98881960       0.00504000       0.00449000
C        2.50715923       0.01574999       0.04168998
C        3.08515906       1.13712955       0.89017963
C        4.48048830       0.62259978       1.17793965
N        4.28574848      -0.80568969       1.42706943
C        3.11517882      -1.24249959       0.65744972
H        0.62441975      -0.82875967      -0.60398978
H        0.60714978       0.93478966      -0.42963985
H        0.56366980      -0.09793997       1.00833964
H        2.88507891       0.12432995      -0.98441964
H        2.52010894       1.26237953       1.82177937
H        3.09622884       2.09494925       0.36100987
H        5.13084793       0.76710969       0.30726990
H        4.93525839       1.12062967       2.03863931
H        5.11547804      -1.33374953       1.16071951
H        3.40136862      -1.95581925      -0.12341995
H        2.41784906      -1.74742937       1.33385956
