20

C    1.53890000   2.23913200  -0.71850500
C    2.63559700   1.37212000  -0.12124600
N    3.79053200   2.16507700   0.26348200
C    5.11153600   1.80130100   0.28021200
C    6.05631600   2.80586800   0.88720500
C    5.45498700   0.27971700   0.34823800
C    5.63584400   0.92389600  -0.94576000
H    0.67572100   1.60909000  -0.96932400
H    1.87822000   2.73698700  -1.63743300
H    1.19418700   3.00174800  -0.00421800
H    2.95596000   0.59388600  -0.82829100
H    2.27346000   0.85324800   0.78554000
H    3.58317800   3.09991300   0.61824600
H    7.09203600   2.45078300   0.82229000
H    5.82176000   2.96474900   1.95046800
H    5.99854200   3.76954900   0.35906400
H    4.61018700  -0.39660800   0.49796200
H    6.32859200   0.07889700   0.97420500
H    6.63226200   1.23351100  -1.27063500
H    4.91132500   0.75523300  -1.74578100