13
Properties=species:S:1:pos:R:3 pbc="F F F"
C        0.94450969      -0.04243999       0.01499999
C        2.43689895      -0.00333000       0.03025999
C        3.13901877       1.13798952       0.00000000
C        4.54501867       1.13798952       0.00000000
C        5.73517752       1.13798952       0.00000000
C        7.26696730       1.13762951       0.00001000
C        8.46770763       1.13731956       0.00001000
H        0.60022980      -1.07802951      -0.07190997
H        0.54467982       0.51330984      -0.83891970
H        0.53563976       0.37086987       0.94185960
H        2.95292878      -0.96080965       0.06167997
H        2.62977910       2.09707928      -0.03103999
H        9.53206635       1.13687968       0.00002000
