14
Properties=species:S:1:pos:R:3 pbc="F F F"
C        1.41200948       0.14924996      -1.48320949
C        2.60441899       0.22871992      -0.89023966
O        3.43116879       1.30587947      -1.07591951
C        4.65859842       1.18818951      -0.32914990
C        5.80499792       0.50381982      -1.02323961
C        5.80763769       1.99637926      -0.86831969
H        0.76948971      -0.71045971      -1.33179951
H        1.06091964       0.94450969      -2.13224912
H        2.98734879      -0.54642975      -0.24074991
H        4.59252834       1.11520958       0.75296974
H        5.63161802       0.09726997      -2.01273918
H        6.49047756      -0.07371997      -0.41558984
H        6.49579763       2.43456888      -0.15585995
H        5.63285780       2.60053921      -1.75098932
