13

C    1.12047900  -0.09893200  -0.51588200
O    2.49484200   0.10478800  -0.12866700
C    3.08876900   1.22593100  -0.28539200
C    4.42838000   1.34724800   0.11665200
C    5.21115200   2.57930900  -0.01371300
H    1.11985200  -0.91836900  -1.24457200
H    0.69980400   0.82034400  -0.94376300
H    0.58287000  -0.40309800   0.39018400
H    2.53534500   2.06644600  -0.73079700
H    4.88981300   0.45168800   0.54995400
H    4.65769800   3.41548800  -0.45851100
H    6.11924300   2.37342900  -0.61046600
H    5.59700600   2.87377200   0.98002500