15
Properties=species:S:1:pos:R:3 pbc="F F F"
C        0.95283961       0.08745997      -0.15716994
C        2.43817902      -0.04918998       0.13887994
O        2.64985895      -1.24003959       0.93606961
C        3.25544882      -0.80994976       2.10685921
C        3.58605862      -1.65124929       3.08584881
C        3.45104861       0.60364974       2.09932923
C        2.97492886       1.07965958       0.95187962
H        0.59795982      -0.78295970      -0.71930975
H        0.74224967       0.98940963      -0.74031973
H        0.36400986       0.12298995       0.76654971
H        3.00617886      -0.15689994      -0.79220968
H        3.38623881      -2.71202898       2.98441887
H        4.05480862      -1.30799949       4.00056839
H        3.90579844       1.17539954       2.89211893
H        2.98132896       2.11410904       0.64525974
