9

N    1.08683600  -0.15061700  -0.24335900
C    2.46448800   0.02850100  -0.02263100
C    2.94344600   1.38705000  -0.03482600
C    3.37556800   2.51625300  -0.03921000
H    0.67763800  -1.08937400  -0.24827800
H    0.45839800   0.64342200  -0.40370700
H    3.01691000  -0.60977000  -0.76041700
H    2.73022200  -0.49339700   0.93338500
H    3.76228500   3.52379900  -0.04281600