19
Properties=species:S:1:pos:R:3 pbc="F F F"
C        1.52644944       0.49715981      -0.95481968
C        2.98336887       0.66217977      -0.56973976
O        3.23636866       2.04542923      -0.34391987
C        4.58578825       2.27592897       0.05141998
C        4.78793812       3.75870848       0.21854992
C        4.59338856       4.59511852      -1.01380956
C        5.13646841       4.30741835       1.39515948
H        1.29051948      -0.55306983      -1.14714956
H        1.29560947       1.08186960      -1.85093927
H        0.87368965       0.86542970      -0.15683994
H        3.62570858       0.29679990      -1.37893951
H        3.19388866       0.09122997       0.34162986
H        5.27106762       1.89729929      -0.71620971
H        4.78536797       1.74012935       0.98719960
H        5.27276802       4.26557827      -1.80699933
H        4.79305792       5.65573788      -0.82630968
H        3.56473875       4.51196814      -1.37944949
H        5.27457809       3.70231867       2.28634906
H        5.27993774       5.37830830       1.50114942
