17

C    3.15941500  -0.90456100  -0.80080900
C    2.47243400   0.09331900   0.10771900
C    2.87407000   1.52919100  -0.12927100
C    2.03786300   2.57172100  -0.26528900
C    4.33311000   1.80350500  -0.21514500
C    4.93260900   3.20330500  -0.17042500
O    5.14884700   0.90523000  -0.32476800
H    2.88157300  -1.93597000  -0.53863400
H    4.26807900  -0.87148800  -0.66728900
H    2.94842700  -0.72783900  -1.86484600
H    2.66849400  -0.15539700   1.16430800
H    1.38002700   0.04053800  -0.02257500
H    0.95684900   2.40731900  -0.24974200
H    2.36935200   3.60244500  -0.40563500
H    4.60067500   3.72594500  -1.08026900
H    6.02661800   3.15035300  -0.15321700
H    4.55338700   3.71208600   0.72618800