15
Properties=species:S:1:pos:R:3 pbc="F F F"
O        1.06296968      -0.20365992       0.14097995
C        2.41123915       0.16186994      -0.08089998
C        2.70397902       1.43284941       0.66603971
C        3.68105865       1.22131956       1.56293941
C        4.18314838      -0.16110994       1.57017946
C        3.27883887      -1.29329956       1.96762919
C        3.34581876      -0.87134969       0.51909983
H        0.99568963      -1.14922965      -0.06706997
H        2.58949900       0.28651991      -1.15360963
H        2.18018937       2.36229897       0.50476980
H        4.06265831       1.97873926       2.23648930
H        5.25540829      -0.30587989       1.56070936
H        3.74167871      -2.23352909       2.24408913
H        2.38075900      -1.06659961       2.53257895
H        3.83875871      -1.50356948      -0.20433992
