15
Properties=species:S:1:pos:R:3 pbc="F F F"
O        0.89616966       0.23550992       0.21125992
C        2.32977915       0.07660997       0.02155999
C        3.19205880       1.02882957       0.91058964
C        4.09775829      -0.16613993       1.24781942
C        2.94713879      -1.10075951       0.84207970
C        2.69592881       0.08425997      -1.52286935
O        3.81146860      -0.03161999      -2.03036928
H        0.75728971       0.21945991       1.17444956
H        2.65816903       1.43967938       1.77530944
H        3.69115877       1.85072935       0.38896987
H        4.97855854      -0.24659990       0.60080975
H        4.41864824      -0.23655991       2.29028916
H        3.25069880      -1.97963929       0.26577988
H        2.32774901      -1.43386948       1.68289936
H        1.81991935       0.21054992      -2.18178916
