15

C    0.98754500  -0.19709400   0.21105400
C    2.48570900   0.02178000  -0.07658200
C    2.93196500  -0.62448700  -1.30735400
C    3.28359700  -1.16785400  -2.32807200
C    2.84496600   1.51078000  -0.08947800
N    3.54271800   2.01234500  -1.06724600
N    2.35342700   2.29645500   0.86744800
H    0.69831000   0.24436300   1.17527700
H    0.79053800  -1.27525200   0.25220100
H    0.37066900   0.24272600  -0.58371300
H    3.07482200  -0.38492000   0.76843400
H    3.58993700  -1.67335300  -3.22935000
H    3.84337100   1.39081500  -1.82236200
H    3.79298000   2.99879500  -1.09764000
H    2.54705100   2.06198700   1.84836500