15
Properties=species:S:1:pos:R:3 pbc="F F F"
C        3.76871848      -1.62574935      -0.09429996
O        4.77934837      -0.63233972      -0.20914993
C        4.23901844       0.67744976      -0.10174996
C        5.26938772       1.80771935      -0.16309994
O        4.92398834       2.98403907      -0.03747999
C        6.70084763       1.44966948      -0.38935986
C        7.63956738       2.39739895      -0.50327981
H        4.23451805      -2.60693908      -0.22129992
H        3.00923872      -1.49598944      -0.87121969
H        3.30503869      -1.58587945       0.89680964
H        3.71530867       0.77362972       0.85584968
H        3.53482866       0.84140968      -0.92599964
H        6.95352745       0.39851984      -0.46153983
H        7.39407730       3.45356870      -0.43461984
H        8.67817688       2.13287926      -0.67023975
