17
Properties=species:S:1:pos:R:3 pbc="F F F"
C        0.99097961      -0.01607000       0.07041997
C        2.51999903       0.00000000       0.00000000
N        3.04821897      -0.69976974       1.17987955
C        3.00420880      -0.74767971      -1.28926957
N        4.46544838      -0.97427964      -1.32490945
C        3.00201893       1.36116946       0.00000000
C        3.39929867       2.48306894       0.00000000
H        0.54828978       0.48838982      -0.79818970
H        0.61995977       0.49871981       0.96660966
H        0.59976977      -1.04100955       0.09081997
H        3.08722878      -0.05675998       1.96727920
H        4.01539850      -0.95177966       0.95583963
H        2.71526909      -0.18409993      -2.18488932
H        2.51825929      -1.72888935      -1.35024941
H        4.93425798      -0.06802998      -1.32505941
H        4.70498848      -1.41935945      -2.20942926
H        3.75317883       3.48837876       0.00550000
