17
Properties=species:S:1:pos:R:3 pbc="F F F"
C        0.98841965       0.11532996      -0.17177993
C        2.47057915      -0.09236997       0.00566000
C        2.88408899      -1.53643942       0.07772997
C        3.28971887       0.97082967       0.12445995
C        4.77498817       0.94748962       0.24076992
N        5.55390787      -0.05528998      -0.24000990
N        5.41035843       1.94503927       0.77300972
H        0.72040975       1.17509961      -0.23628992
H        0.43951982      -0.31543988       0.67204976
H        0.64777976      -0.36868984      -1.09316957
H        2.13781905      -2.11821914       0.63011974
H        3.82864857      -1.68496943       0.60527980
H        2.96597886      -1.95767927      -0.92922968
H        2.86742878       1.97189927       0.12919995
H        5.22126818      -0.50017983      -1.08533955
H        6.52492762       0.23270991      -0.29275990
H        4.75442839       2.65329909       1.11337948
