15
Properties=species:S:1:pos:R:3 pbc="F F F"
C       -1.24153960      -0.00116000       0.98636967
C       -0.60216975      -1.00252962       0.00375000
C        0.88823968      -1.21325958       0.27233991
O        1.64688945      -0.00059000       0.11702996
C        0.88841963       1.21170962       0.27617991
C       -0.60115981       1.00276959       0.00782000
O       -0.79896975       0.00116000      -1.06460953
H       -0.86517966      -0.00320000       2.01185918
H       -2.33539891      -0.00134000       0.99063963
H       -1.18240952      -1.91394925      -0.16572994
H        1.05144966      -1.59479940       1.28604960
H        1.30242956      -1.94519925      -0.42853984
H        1.30324948       1.94516921      -0.42258987
H        1.05225956       1.58986938       1.29055941
H       -1.18165958       1.91430926      -0.15969993
