15
Properties=species:S:1:pos:R:3 pbc="F F F"
C       -0.23402992      -0.43286982       0.10667995
C        1.12286961       0.06006997       0.49323979
C        1.92700934       0.74594975      -0.33416986
C        3.28985858       1.25842953       0.01933999
O        4.20589828       0.69717973      -0.92589968
C        5.37849808       1.36479950      -1.03253961
O        5.70980787       2.36526918      -0.41913986
H       -0.27793989      -1.52155936       0.20620991
H       -0.48899981      -0.17469995      -0.92620963
H       -0.99126959       0.00511000       0.76389968
H        1.44905949      -0.16650993       1.50585949
H        1.59231937       0.96940964      -1.34454954
H        3.58851862       0.95156962       1.02801967
H        3.27819872       2.35287905      -0.04027998
H        6.01069784       0.85853970      -1.77874935
