17
Properties=species:S:1:pos:R:3 pbc="F F F"
C        1.86856925      -3.07921886       0.78836972
C        1.31042957      -1.69052935       0.90014964
C        0.32017988      -1.39342952       1.75965929
C        1.93425930      -0.65227979       0.00184000
O        1.57341945      -0.95368963      -1.34688950
C        2.03843927      -0.12333995      -2.32657909
C        2.84262896       0.94087964      -2.22102904
H        1.76777935      -3.45749879      -0.23385993
H        1.35582948      -3.78382874       1.45381939
H        2.93083906      -3.08342862       1.05783963
H       -0.12105995      -2.14905930       2.40051913
H       -0.08579997      -0.39011985       1.83279932
H        3.02460885      -0.68167973       0.11919995
H        1.57731938       0.35099989       0.26358992
H        1.64906931      -0.45194983      -3.28470874
H        3.24924874       1.28757954      -1.27864957
H        3.11856890       1.49872947      -3.11038876
