16
Properties=species:S:1:pos:R:3 pbc="F F F"
C        0.99663961       0.00114000       0.00656000
C        2.52762890      -0.00676000      -0.03572999
C        3.05913877      -1.22569942      -0.80795974
C        3.35496879      -0.66534972      -2.16084909
C        3.36199856       0.67103970      -2.15368915
C        3.07141876       1.21670949      -0.79172969
H        0.63147974       0.88185966       0.54520983
H        0.62153977      -0.88758963       0.52487981
H        0.56162977       0.01522999      -0.99837959
H        2.89389896      -0.01527999       0.99787962
H        2.32986927      -2.03990936      -0.85800970
H        3.98166847      -1.60843945      -0.35808986
H        3.56987882      -1.27700949      -3.02670884
H        3.58358860       1.29184949      -3.01054883
H        3.99813867       1.58446932      -0.33751988
H        2.35046935       2.03901935      -0.83194965
