17
Properties=species:S:1:pos:R:3 pbc="F F F"
C        0.77334970       1.45596945      -1.10573959
C        2.25495911       1.25936961      -1.11539960
C        3.05885887       1.58855939      -0.09192996
C        4.54690838       1.38869941      -0.08865996
C        5.22249794       2.75212884      -0.03922999
N        5.48053789       3.41634870      -1.19975960
N        5.52590799       3.32675886       1.08040953
H        0.48428982       2.15329909      -1.89786935
H        0.41437984       1.85342932      -0.15100995
H        0.27043992       0.50106978      -1.28689957
H        2.67430902       0.81815970      -2.01702929
H        2.63256907       2.02911925       0.80803972
H        4.88751841       0.85557967      -0.98320967
H        4.84079790       0.79981971       0.78631973
H        4.82114792       3.26105881      -1.95329928
H        5.67699766       4.39792871      -1.03204966
H        5.26557827       2.72658896       1.86990929
