12

C    1.00167200   0.00480300  -0.00722200
N    2.44633200   0.10468300   0.00054000
C    3.21280200   1.15865400   0.00450600
C    4.56824400   0.67604100   0.01144400
C    4.42391900  -0.76296200   0.01026100
N    3.17627600  -1.10338000   0.00396300
H    0.56620900   1.00975300  -0.00527100
H    0.68954800  -0.55996200   0.88271400
H    0.69844500  -0.55244500  -0.90500700
H    2.83101800   2.17999700   0.00276900
H    5.48105200   1.27275400   0.01611500
H    5.21303000  -1.51556700   0.01406700