17
Properties=species:S:1:pos:R:3 pbc="F F F"
C        0.98416966      -0.04704998       0.19988991
C        2.49393892      -0.04602998      -0.06843998
C        2.80788898      -0.76568967      -1.38782954
O        2.36172891      -2.11659908      -1.34301949
C        3.01980901       1.39803946      -0.07746997
C        4.49071836       1.45389938      -0.08356997
C        5.69011784       1.50476944      -0.09101997
H        0.75795972       0.45368984       1.14732957
H        0.59366977      -1.06762958       0.26696992
H        0.44053981       0.47314981      -0.59616977
H        2.96649885      -0.60335976       0.75185972
H        3.88200855      -0.77899975      -1.59738934
H        2.30796909      -0.27579990      -2.23005939
H        2.85763884      -2.56174898      -0.63437980
H        2.65853906       1.92626917       0.81364971
H        2.62475920       1.93945932      -0.94555968
H        6.75509787       1.55305946      -0.09898996
