17
Properties=species:S:1:pos:R:3 pbc="F F F"
C        0.81922972      -0.00869000      -0.11662995
C        2.29555917      -0.29445988      -0.03387999
O        2.72914910      -1.43252945      -0.21078992
C        3.18918872       0.89887965       0.26045990
C        4.64574814       0.55738980       0.38900986
C        5.60658789       0.82781971      -0.74062973
C        5.66423798       1.66278934       0.50837982
H        0.49370980       0.51801980       0.78353971
H        0.26369992      -0.94968963      -0.18749993
H        0.61222976       0.59679979      -1.00317967
H        2.85137892       1.33744955       1.20639956
H        3.03302884       1.63804936      -0.53367978
H        4.80970860      -0.32745987       0.99665964
H        5.23578787       1.29302955      -1.64646947
H        6.39962769       0.10749996      -0.90965968
H        6.49961758       1.50884950       1.18276966
H        5.32945776       2.69162893       0.44703984
