9

O    1.02603600  -0.16330800  -0.08481600
C    2.23463900   0.01268200  -0.02065400
C    2.90414500   1.27896500  -0.04562400
C    4.26302100   1.28501000   0.03591700
C    5.00995500   2.49086200   0.01873900
N    5.62701500   3.47132700   0.00535700
H    2.80937800  -0.94671100   0.06305300
H    2.30081600   2.18686000  -0.12878100
H    4.84474400   0.35767900   0.11875900