15
Properties=species:S:1:pos:R:3 pbc="F F F"
C        0.94747967      -0.01158000      -0.22516991
C        2.00758934       0.31299990       0.52591980
C        2.93299890       1.37567949       0.08806997
C        2.45529890       2.82933903       0.29467988
C        3.88734865       3.07693887       0.79546970
N        3.96142840       1.63600945       1.12399960
H        0.26315990      -0.79145974       0.09527996
H        0.73269969       0.48896983      -1.16456962
H        2.19164920      -0.20467992       1.46377945
H        3.36535859       1.18809962      -0.90399963
H        1.68615937       2.97082901       1.06411970
H        2.16576934       3.37432885      -0.60766977
H        4.58985806       3.38866878       0.01348000
H        3.98080850       3.75005865       1.65167940
H        4.86331797       1.20248950       0.93757963
