10
Properties=species:S:1:pos:R:3 pbc="F F F"
C        0.99999964       0.00000000       0.00000000
C        2.44399905       0.00000000       0.00000000
C        3.63415861       0.00000000       0.00000000
C        5.07815790       0.00000000       0.00000000
H        0.60608977       1.02032959       0.01167000
H        0.60608977      -0.52026981       0.87778968
H        0.60608977      -0.50005978      -0.88946962
H        5.47206783       1.02032959      -0.01167000
H        5.47206783      -0.52026981      -0.87778968
H        5.47206783      -0.50005978       0.88946962
