19

C    0.96449400  -0.06068100   0.08172500
C    2.50727600  -0.03711900  -0.01308700
C    3.13861500  -0.71989800   1.21346200
C    2.97398200  -0.72239300  -1.30151100
C    2.90016400   1.44488500  -0.01840900
N    3.26943300   2.05310100  -1.11424600
N    2.93205800   2.11092200   1.13624700
H    0.49109700   0.46871000  -0.75818500
H    0.59698400   0.36738500   1.02581900
H    0.63450400  -1.10879500   0.04851300
H    2.80822200  -0.26865400   2.16068300
H    4.23654300  -0.68207400   1.17662800
H    2.83257500  -1.77484800   1.22730800
H    2.46409400  -0.33690500  -2.19902100
H    2.71886100  -1.78926300  -1.23890100
H    4.06476200  -0.65968100  -1.43526400
H    3.32255100   1.54360300  -1.99187900
H    3.51241100   3.04156000  -1.11614200
H    2.08604800   2.13052200   1.71669200