19
Properties=species:S:1:pos:R:3 pbc="F F F"
C        1.78623939      -1.23093951       1.03252959
C        1.85457921      -0.18941994      -0.07555997
C        3.08455896       0.71143973       0.03376998
N        4.30286837      -0.04253998      -0.19871992
C        5.56213808       0.49680981      -0.15812995
C        6.65480757      -0.24474990      -0.89225966
N        5.88590765       1.58172941       0.45823982
H        0.85352969      -1.79868925       0.95792967
H        1.81662929      -0.75753969       2.01873922
H        2.61689901      -1.93975925       0.96446961
H        0.95562965       0.43632984      -0.02367999
H        1.83853936      -0.69451970      -1.04883957
H        3.10517883       1.18056953       1.02349961
H        3.00957894       1.50825942      -0.71488971
H        4.19289827      -0.81852967      -0.84558970
H        6.74139738      -1.25773954      -0.48879981
H        7.61455727       0.26788992      -0.78344971
H        6.40024757      -0.30428991      -1.95460927
H        5.07157850       1.96536922       0.93604964
