17
Properties=species:S:1:pos:R:3 pbc="F F F"
C        2.60538888      -1.52185941       0.55054981
O        3.35525870      -0.31418988       0.56925976
C        2.84458876       0.62866980      -0.37182987
C        3.61999846       1.93852925      -0.26303989
O        3.10024881       2.85220909      -1.23099959
C        3.63799858       4.10571861      -1.26482952
C        4.60045815       4.63262844      -0.49985981
H        3.07060885      -2.22883916       1.24306953
H        2.60578918      -1.96245933      -0.45195982
H        1.57805943      -1.33598948       0.87929970
H        1.78082943       0.81454974      -0.18115994
H        2.93565893       0.22689991      -1.38803947
H        4.68536806       1.75139940      -0.44480982
H        3.50493884       2.34142923       0.75139976
H        3.15492868       4.67935801      -2.04852939
H        5.09802818       4.08303833       0.28993988
H        4.91420841       5.66040802      -0.65758979
