9
Properties=species:S:1:pos:R:3 pbc="F F F"
C        0.99229962       0.00543000      -0.00691000
C        2.48665905       0.06761998       0.02609999
N        3.09967875       1.20021963      -0.10665996
O        4.47542858       0.97926962       0.00725000
H        0.67683977      -1.03013957      -0.15006995
H        0.60532975       0.62585974      -0.82071966
H        0.59866977       0.36884984       0.94686967
H        3.02885890      -0.87147969       0.22286992
H        4.83862829       1.88392925      -0.06309998
