16
Properties=species:S:1:pos:R:3 pbc="F F F"
O        0.55691975       0.12323995      -0.45305982
C        1.92024922      -0.28293988      -0.40341985
C        2.78657889       0.94403964      -0.15331994
C        4.28396845       0.64035976      -0.18181993
C        4.71775818      -0.28571990       0.91809964
C        5.30524826      -1.47189951       0.71303976
H        0.02685999      -0.68042976      -0.59154975
H        2.17460918      -0.75511974      -1.35815954
H        2.02745914      -1.01929963       0.39932987
H        2.50597906       1.39936948       0.80442971
H        2.56098890       1.70124936      -0.91450965
H        4.83662796       1.58145940      -0.06995997
H        4.55648851       0.23415992      -1.16436958
H        4.54686832       0.04918998       1.93963921
H        5.50716829      -1.84558928      -0.28601989
H        5.60377789      -2.09485912       1.55065942
