13
Properties=species:S:1:pos:R:3 pbc="F F F"
C        0.99999964       0.00000000       0.00000000
C        2.19015908       0.00000000       0.00000000
C        3.59615874       0.00000000       0.00000000
C        4.30562830       1.07280958      -0.37957987
C        5.76822805       1.17510962      -0.38224983
C        6.55378771       0.42017984      -1.42406940
O        6.47683764       1.84900928      -1.43425941
H       -0.06519998       0.00208000      -0.00114000
H        4.10374832      -0.89994967       0.33421987
H        3.77714872       1.96685922      -0.70703977
H        6.20298767       1.25800943       0.60939974
H        6.02753782      -0.10954995      -2.20890903
H        7.49476719      -0.02795999      -1.12959957
