17
Properties=species:S:1:pos:R:3 pbc="F F F"
C        0.94898963      -0.14891995       0.07359997
C        2.45627904      -0.09023996      -0.15325993
C        2.90626907      -1.15515947      -1.14562964
C        2.87297893       1.28368950      -0.66019976
O        2.16122913       1.96484923      -1.40263951
C        4.26006842       1.77432930      -0.25801989
O        4.51282835       3.08800888      -0.73358977
H        0.63033974       0.63697976       0.76692969
H        0.65776974      -1.11473954       0.49915981
H        0.39498988      -0.00973000      -0.86110967
H        2.95019889      -0.25780991       0.81134975
H        2.44591904      -1.00249958      -2.12820935
H        2.63628888      -2.15607929      -0.79385972
H        3.99201870      -1.12815952      -1.28557944
H        5.01423788       1.10412955      -0.67775977
H        4.33663845       1.78508937       0.83224970
H        3.81005859       3.28096867      -1.38840950
