19
Properties=species:S:1:pos:R:3 pbc="F F F"
C        0.97518963       0.03513999       0.17818993
C        2.49600911       0.01268000       0.00824000
C        2.97969890      -1.32746947      -0.56269979
C        2.70059896      -1.44875944      -2.05655932
O        3.26138878      -0.34699985      -2.76716900
C        2.70330906       0.90065968      -2.35995913
C        2.98174882       1.16184962      -0.88355970
H        0.65273976       0.98273963       0.62390971
H        0.65046972      -0.77160972       0.84442967
H        0.44607985      -0.08351997      -0.77210969
H        2.93266892       0.14034994       1.00609958
H        2.53235888      -2.16907907      -0.02183999
H        4.06581831      -1.38625956      -0.40953985
H        3.16214871      -2.36287904      -2.44406891
H        1.62715936      -1.51243937      -2.26632905
H        3.16740894       1.68526936      -2.96650910
H        1.63020933       0.91158962      -2.57997918
H        4.06778860       1.25656950      -0.74996972
H        2.53536892       2.11408925      -0.57480979
