15

C    0.98933500   0.06184000   0.32908500
C    2.44464700  -0.08787200   0.10643300
C    3.05529400  -1.46556600  -0.06985400
C    3.66239900  -1.57202200  -1.39647100
C    4.14762100  -1.64326700  -2.50203300
N    3.19038900   0.97020100   0.09097100
N    4.36870800   1.09886700  -0.40967100
H    0.69536300   1.10969200   0.45356300
H    0.69946000  -0.52257200   1.21845300
H    0.45405100  -0.38383000  -0.52570500
H    2.27537800  -2.22946600   0.05995100
H    3.81081900  -1.63168900   0.71840200
H    4.56951500  -1.74668100  -3.48844700
H    4.61766700   0.62114800  -1.28680500
H    4.97945900   1.80987900  -0.00610100