11
Properties=species:S:1:pos:R:3 pbc="F F F"
N        1.01378965      -0.20422992       0.31821987
C        2.16009927      -0.09454997       0.16617994
C        3.58409858       0.08561997      -0.03430999
C        4.26580858       1.12968957       0.85848969
C        5.20974779      -0.00681000       1.23863959
O        4.36016798      -0.98161966       0.58720982
H        3.85869861       0.17241994      -1.09284961
H        3.66863871       1.51226950       1.69181943
H        4.73288822       1.96293926       0.32740986
H        6.20009756       0.02776999       0.77487969
H        5.30364799      -0.19910993       2.31059909
