15
Properties=species:S:1:pos:R:3 pbc="F F F"
N        2.63924909      -1.12656963      -0.34138986
C        2.13265920       0.03700998       0.16836995
N        1.00249958      -0.01323000       0.80426967
C        2.86466885       1.35165942       0.00147000
C        2.15652919       2.48498917       0.12827995
C        4.30044842       1.33317947      -0.22004992
C        4.97925854       2.16958904      -1.01567960
H        3.29517889      -1.00301957      -1.10706961
H        1.95866930      -1.84730935      -0.54069978
H        0.68607974      -0.98183960       0.85877967
H        1.08754969       2.46201897       0.32193986
H        2.61782908       3.46315885       0.06109998
H        4.84377813       0.55746979       0.31745988
H        4.48983812       2.95711899      -1.58024943
H        6.05671787       2.08216929      -1.11572957
