15

C    0.67319500  -0.12786800   0.07376700
C    2.17226200  -0.04196600  -0.12028700
C    2.69539200  -0.60447100  -1.36373500
C    3.89304100  -1.25453800  -1.43609400
C    2.66969300   1.56712700  -0.05707200
O    3.81808000   1.87722900  -0.55267600
O    1.92278200   2.29308400   0.50818400
H    0.36703300   0.36631100   1.00428500
H    0.39519600  -1.19020200   0.12939300
H    0.12747800   0.32655300  -0.76535200
H    2.73722300  -0.38350300   0.76935700
H    2.06606200  -0.52753300  -2.25804800
H    4.55225700  -1.35445300  -0.56543700
H    4.21039100  -1.74656400  -2.36018300
H    4.23386000   1.13829600  -1.02922900