15
Properties=species:S:1:pos:R:3 pbc="F F F"
O        1.57043934       0.04187998       1.36958945
C        2.40693927       0.01238000       0.47469983
C        2.97095895      -1.26233947      -0.12873995
C        3.92403841      -0.78817970      -1.19179952
C        5.18961763      -0.05025998      -0.83876967
C        3.94673848       0.71084970      -1.21859956
C        3.00803900       1.24938953      -0.17344993
H        2.15645933      -1.84236932      -0.56866980
H        3.49065852      -1.83954930       0.63891977
H        3.87754846      -1.34357941      -2.11818933
H        5.51849794      -0.03716999       0.19449994
H        6.00502777      -0.07510997      -1.55408943
H        3.91530871       1.23462951      -2.16361928
H        3.54497862       1.83933938       0.57480979
H        2.20943928       1.83861935      -0.63402975
