13

C    0.88073900  -0.00899000  -0.00530800
C    2.36293400  -0.04035100  -0.00217200
C    3.22506800   1.10341500  -0.00402400
O    2.88649900   2.33605100  -0.00746700
O    4.50309700   0.75691400  -0.00142700
C    4.53364900  -0.60580400   0.00211200
C    3.24843600  -1.12325000   0.00173700
H    0.49578400   1.01772700   0.00663800
H    0.48888400  -0.54625900   0.87201900
H    0.49384800  -0.52251400  -0.89917900
H    3.64083000   2.95280300  -0.00785700
H    5.52235800  -1.06113400   0.00463600
H    2.99463000  -2.18180000   0.00429100