12
Properties=species:S:1:pos:R:3 pbc="F F F"
C        0.30946988       1.35018957       0.16434994
C        1.34841955       0.28047988      -0.15476993
O        0.96830958      -0.99498957       0.38742986
C       -0.36867985      -1.23887944       0.19162993
C       -1.25984955      -0.31878990      -0.19462994
O       -0.97479963       1.01091957      -0.38423985
H        0.61030978       2.31382918      -0.25833991
H        0.19446991       1.47321939       1.24841952
H        2.31911898       0.55037975       0.27273992
H        1.47218943       0.16595994      -1.23886955
H       -0.61474979      -2.27342916       0.38754985
H       -2.30057907      -0.53265983      -0.39548987
