14
Properties=species:S:1:pos:R:3 pbc="F F F"
C        1.15475953      -0.41985986       0.25781992
N        2.52670908      -0.15365994      -0.13678995
C        3.10880899       1.09850967      -0.13732995
N        2.28654909       2.18527913      -0.30083990
C        4.44678831       1.20939946       0.00000000
C        5.14978790       2.42703915       0.00000000
N        5.72528791       3.42383862       0.00000000
H        0.95847964      -1.49453938       0.19469993
H        0.44413984       0.08599997      -0.40317985
H        0.97905964      -0.10031996       1.29009950
H        3.15971875      -0.89909971       0.14554994
H        1.51210952       1.96469927      -0.91954970
H        2.75578904       3.04026890      -0.58958977
H        5.05344820       0.31951988       0.11518995
