16
Properties=species:S:1:pos:R:3 pbc="F F F"
C        2.80945897      -0.83699971      -1.15998948
C        2.46310925       0.00067000       0.06628998
C        3.02738905       1.43281937       0.00000000
C        2.51875901       2.23290920       1.18236959
C        1.75005937       3.32760859       1.08634949
C        4.47138834       1.43281937       0.00000000
N        5.62239790       1.43281937       0.00000000
H        2.32604909      -1.81696928      -1.09365952
H        3.88835859      -1.00474966      -1.24072957
H        2.46564913      -0.35090986      -2.07879925
H        2.82949901      -0.51777983       0.96134961
H        1.36962950       0.04315998       0.15131995
H        2.67155910       1.89853930      -0.92846966
H        2.80514908       1.88389921       2.17407918
H        1.43370950       3.72887874       0.12855996
H        1.42385948       3.85403848       1.97896922
