19
Properties=species:S:1:pos:R:3 pbc="F F F"
C        1.02749956      -0.13738996       0.00874000
C        2.55092907      -0.13204995       0.02503999
C        3.12704873       1.29033959       0.07902997
O        2.68961906       1.93974924       1.27819955
C        4.66903830       1.28443956       0.03829999
C        5.24831820       2.69062901      -0.08361997
O        5.18078804       0.68081975       1.23247945
H        0.65557975      -1.16385949      -0.06810997
H        0.64336979       0.42777982      -0.84588969
H        0.61821979       0.30013990       0.92413968
H        2.91813898      -0.64589977      -0.87139964
H        2.88330889      -0.71100974       0.89553964
H        2.74344897       1.86901927      -0.76867968
H        2.80814886       1.30013943       2.00292921
H        5.01590776       0.68329972      -0.80961967
H        4.96757793       3.31556869       0.77068967
H        4.90866804       3.17941880      -1.00140965
H        6.34270763       2.64943886      -0.09444997
H        5.07486820       1.33725953       1.94422925
