16

C    2.77611100  -0.73462400  -1.12770300
C    2.37264700   0.13824100   0.05159800
C    3.20678200   1.55042000  -0.02381200
C    2.71698500   2.28161200   1.13498900
C    1.55645600   3.06008700   1.09929700
C    4.63984700   1.29379500   0.00029300
N    5.77459600   1.08174800   0.02492500
H    2.18613700  -1.66186200  -1.04966700
H    3.84090200  -1.00106900  -1.09750200
H    2.54482600  -0.26295300  -2.09231100
H    2.60597600  -0.33341500   1.01626500
H    1.30164900   0.38260200   0.02337700
H    2.90252800   2.00195300  -0.98313400
H    3.25842500   2.17645100   2.08428800
H    0.90704200   3.07438100   0.21666500
H    1.28511400   3.69338600   1.95007100