17
Properties=species:S:1:pos:R:3 pbc="F F F"
C        0.91728967       0.05712998       0.00303000
C        2.44408917       0.05269998       0.03386999
C        3.02469897       0.10382996      -1.37542939
O        2.88344884      -1.17286956       0.66215974
C        3.38432860      -0.86229968       1.97481930
C        3.51523876       0.61237979       2.00763917
C        2.98377872       1.13780963       0.90654963
H        0.49885982      -0.04341998       1.01219964
H        0.53954977      -0.79747969      -0.57068980
H        0.52268982       0.97677964      -0.44307986
H        4.12051868       0.05858998      -1.35509944
H        2.72831893       1.01741970      -1.90265930
H        2.69222903      -0.75898975      -1.96453929
H        4.34446859      -1.36534941       2.11178923
H        2.67032886      -1.22144961       2.72265887
H        3.96178865       1.16752958       2.81829906
H        2.92813897       2.19257927       0.67681974
