15

C    3.07217900  -1.33047100   0.09485700
O    4.07163200  -0.55179500  -0.56241000
C    4.23991000   0.72420000  -0.21103300
C    5.62839900   1.25023500  -0.48122600
C    6.79356600   0.61683700  -0.28944100
C    5.49106600   2.58028700  -1.09724800
O    4.37968700   2.92991900  -1.44470000
H    3.01391200  -2.28183800  -0.44168300
H    2.10683900  -0.80249900   0.05889500
H    3.37203100  -1.49527400   1.14156100
H    3.81082700   0.99230800   0.77488200
H    3.66737500   1.47964700  -0.93851400
H    6.83801700  -0.41385100   0.07065700
H    7.74312800   1.11708500  -0.50140400
H    6.36540800   3.24298500  -1.24628000