17

C    0.65647300  -0.88880400   0.27700100
N    1.67568900  -0.29803900  -0.54789900
C    2.94669000  -0.95213600  -0.69613500
C    1.51808100   1.04100400  -1.06463800
C    1.80814800   2.07743500   0.03775800
O    3.07927600   1.80183700   0.53450100
H   -0.26123800  -0.29106500   0.25111900
H    1.03289500  -0.95728900   1.31381800
H    0.45464000  -1.91466200  -0.07114000
H    2.93236200  -1.94345400  -0.23078500
H    3.70316800  -0.29988500  -0.22015000
H    3.19687900  -1.02852500  -1.76685500
H    0.48853700   1.16715800  -1.43111900
H    2.22796700   1.17849500  -1.89103100
H    1.02581100   2.01175500   0.81727300
H    1.72717900   3.06940300  -0.44022600
H    3.38803300   2.51914000   1.09786000