15
Properties=species:S:1:pos:R:3 pbc="F F F"
N        0.88445967       0.23861991      -0.43764985
C        2.31184912      -0.06464998      -0.36204988
C        2.99920893       0.79405975       0.70087975
C        4.47584820       0.55123979       0.72536975
C        5.22883797       0.46659982       2.02767920
O        4.86931801      -0.70785969       1.28591943
H        0.45225981      -0.36048988      -1.14075959
H        0.75188971       1.19679964      -0.75878972
H        2.77012897       0.10382996      -1.34336948
H        2.43918920      -1.12611961      -0.12351995
H        2.55733895       0.58797979       1.68399942
H        2.82934904       1.85689926       0.49265981
H        4.99315834       0.89759964      -0.15939994
H        4.70137787       0.65091980       2.95549870
H        6.27487755       0.74734974       2.03816915
