21
Properties=species:S:1:pos:R:3 pbc="F F F"
C        1.08157957       0.35063988      -1.68589938
C        2.51961899       0.62302977      -1.38653946
C        2.94382906       1.34966946      -0.34082985
C        4.39206839       1.62050939      -0.04018999
C        4.73402834       3.12257886      -0.01657999
C        6.17965794       3.32028890       0.44604981
C        4.53332853       3.78244853      -1.38353956
H        0.83022970       0.73145974      -2.68044877
H        0.41105983       0.82209969      -0.96067959
H        0.89597970      -0.72746968      -1.67284942
H        3.24321866       0.19529994      -2.07735920
H        2.21861911       1.77235937       0.35189986
H        5.03976774       1.10549963      -0.76134974
H        4.61292839       1.18372965       0.94204962
H        4.07771826       3.62636852       0.70555973
H        6.88551760       2.83965898      -0.23957990
H        6.33064747       2.89352894       1.44298947
H        6.42932749       4.38513851       0.49819982
H        5.14448786       3.29700875      -2.15153909
H        4.81455803       4.84032822      -1.34696949
H        3.48687863       3.73431873      -1.70012927
