13

O    1.48654500  -0.02345000   1.30538800
C    2.36103200  -0.01877000   0.53192300
C    3.23445500   1.08648600  -0.15985800
C    4.17222400  -0.01671500  -0.70587100
C    3.20522000  -1.11667000  -0.20627400
C    4.41940000   0.01010400  -2.13419600
C    4.60904300   0.03277500  -3.32884000
H    3.60984800   1.81163300   0.57902000
H    2.58274400   1.56979600  -0.90850200
H    5.12033100  -0.04103900  -0.14840600
H    2.54134700  -1.55057500  -0.97424600
H    3.56084200  -1.88199500   0.50119400
H    4.79019200   0.05276000  -4.39112700