17
Properties=species:S:1:pos:R:3 pbc="F F F"
C        1.10695958       0.01146000       0.05340998
C        2.61463904       0.10551996      -0.02243999
C        3.38237858      -1.21194959      -0.06905998
C        3.47775865      -1.68509936      -1.49048948
C        2.97406888      -2.84096885      -1.94210935
N        3.13681865       1.29957950      -0.07660997
N        4.48357821       1.36459947      -0.15838994
H        0.65862978       1.00852966       0.09438997
H        0.82423967      -0.54226977       0.95227963
H        0.72791976      -0.51275980      -0.82741970
H        2.85532880      -1.93986928       0.55845982
H        4.38476849      -1.09812963       0.35289988
H        4.00139856      -1.02616966      -2.18231916
H        2.44987917      -3.53255868      -1.29081953
H        3.08342862      -3.12053871      -2.98605895
H        4.75177813       2.30704904      -0.45652983
H        4.90001822       1.27173948       0.77249974
