17
Properties=species:S:1:pos:R:3 pbc="F F F"
C        1.67306948      -0.07667997      -0.00816000
C        0.81963968      -1.22172952       0.53070980
C       -0.41977984      -1.52952945      -0.30751988
C       -1.50018942      -0.49161980      -0.20537992
C       -1.34777951       0.81110972       0.07164998
O       -0.18921994       1.52874947       0.18462993
C        0.89029968       1.07154953      -0.62855977
H        2.37216926      -0.46369982      -0.75886977
H        2.28551912       0.30489987       0.81829971
H        1.44546938      -2.12055922       0.59719980
H        0.51611984      -0.99058962       1.56111944
H       -0.83918971      -2.47311902       0.06269998
H       -0.15709995      -1.69406939      -1.35804951
H       -2.51768923      -0.86929965      -0.29082990
H       -2.19426918       1.46182942       0.26196989
H        1.56935942       1.92230928      -0.75837970
H        0.53552985       0.82055968      -1.63744938
