10
Properties=species:S:1:pos:R:3 pbc="F F F"
O        0.92915964      -0.00014000       0.00700000
C        2.14423919       0.00021000       0.00186000
C        3.00317883       1.19366956      -0.00155000
C        4.25293827       0.71839970      -0.00692000
C        4.25240850      -0.71763974      -0.00718000
C        3.00441885      -1.19249952      -0.00200000
H        2.64741898       2.20672917       0.00015000
H        5.15163803       1.31788945      -0.01060000
H        5.15126801      -1.31733954      -0.01109000
H        2.64834905      -2.20573902      -0.00068000
