12
Properties=species:S:1:pos:R:3 pbc="F F F"
N        1.71497941      -0.69664973       0.36090988
C        2.29077935       0.35382986      -0.12950996
C        2.04413915       0.50134981      -1.56059945
N        1.88801932       0.67893970      -2.69791913
N        3.05247879       1.23638952       0.61418974
C        4.23057842       1.86189926      -0.00294000
C        3.00911903       2.66926908       0.29014990
H        1.94123924      -0.71858972       1.36201942
H        4.45422792       1.58209932      -1.02311957
H        5.07215834       1.93146932       0.67332977
H        3.00308895       3.29903865       1.16980958
H        2.35834908       2.96746898      -0.52019984
