17
Properties=species:S:1:pos:R:3 pbc="F F F"
C        1.00780964      -0.01583999      -0.13247995
N        2.45493913       0.02329999      -0.34571987
C        3.04480886       1.20977950       0.28236988
C        4.47146845       1.33390951      -0.22968991
C        5.23693800       0.05671998       0.05111998
C        4.37074852      -1.16674960      -0.08815997
N        3.08089876      -1.17945957      -0.23618992
H        0.53437984       0.91727966      -0.45554984
H        0.76544970      -0.19045994       0.92066967
H        0.55814981      -0.82065970      -0.72490972
H        2.49333906       2.11649919       0.00870000
H        3.03068900       1.11923957       1.37555957
H        4.97567844       2.18782902       0.23651992
H        4.45818806       1.52315938      -1.31008947
H        5.62647772       0.05803998       1.07468963
H        6.09473753      -0.04093999      -0.62220979
H        4.88419819      -2.13884902      -0.00683000
