15

C    1.00284100  -0.13028300   0.00528100
C    2.46952600   0.05832200  -0.09244800
C    3.14737200   1.26173900  -0.07585400
C    4.61518900   1.32101300  -0.18095800
C    5.25453600  -0.00693200  -0.30152500
C    4.50323300  -1.12606100  -0.30802700
O    3.15638100  -1.07420400  -0.20583200
H    0.48806700   0.83243600   0.09656000
H    0.76418800  -0.75618200   0.87898600
H    0.63389700  -0.65836800  -0.88750900
H    2.57156400   2.18462900   0.01773200
H    5.03656900   1.88463000   0.68217000
H    4.91008200   1.97904100  -1.02965900
H    6.33923100  -0.09208700  -0.38622700
H    4.86636400  -2.14991600  -0.39141900