15
Properties=species:S:1:pos:R:3 pbc="F F F"
C        0.77759975       0.22216992       0.10533996
C        2.23569918       0.07362997       0.46158984
O        2.61380887      -0.94490969       1.05427969
C        3.19826865       1.21076953       0.08854996
C        2.69031906       2.65064907      -0.01796999
O        3.76498866       3.13269901       0.82361972
C        4.08361816       1.77268934       1.20663953
H        0.30523989       0.93925965       0.78128970
H        0.27512988      -0.74402970       0.20150994
H        0.68421972       0.55650979      -0.93058968
H        3.79330850       0.92876971      -0.79114974
H        1.71823943       2.86981893       0.43358982
H        2.73393917       3.08491874      -1.02107966
H        5.15145826       1.56052947       1.10715950
H        3.75867844       1.56617939       2.23121929
