20
Properties=species:S:1:pos:R:3 pbc="F F F"
C        0.91821963       0.14800994       0.05892998
C        2.42202902      -0.08218997       0.04800998
C        3.18726873       1.24036956      -0.03343999
C        4.68695831       1.03286958      -0.03414999
C        5.38606787       1.04590964      -1.18301952
C        5.35831785       0.81169969       1.29593956
N        5.26232815       2.00419927       2.12598920
H        0.38792986      -0.80919969       0.09138997
H        0.59556979       0.68469971      -0.83931971
H        0.61848980       0.73224974       0.93506962
H        2.67925882      -0.71598971      -0.80942965
H        2.70287919      -0.63429981       0.95203966
H        2.89899874       1.89437938       0.79805970
H        2.88563895       1.77269924      -0.94489962
H        4.89729834       1.20186961      -2.13983917
H        6.46131754       0.89812964      -1.19881952
H        6.41670799       0.55610979       1.16452956
H        4.89245844      -0.03344999       1.81358933
H        5.72372770       2.77293897       1.64142942
H        5.78899813       1.85391927       2.98382878
