9
Properties=species:S:1:pos:R:3 pbc="F F F"
C        0.98853964       0.01859999      -0.08365997
C        2.18592906      -0.04242998      -0.02065999
C        3.61175871      -0.11500996       0.05779998
C        4.38182831      -0.80165970      -1.03771961
O        4.27476883       0.62547976      -0.97727960
H       -0.07330997       0.07917997      -0.14423995
H        4.05480862      -0.08519997       1.04611957
H        3.83872867      -1.31148946      -1.82354927
H        5.33952761      -1.24164963      -0.79147971
