17
Properties=species:S:1:pos:R:3 pbc="F F F"
C        3.01707888      -1.16367960      -0.51368982
C        2.44214892       0.06823998       0.16605994
C        3.42690849       1.19792950       0.17562994
C        3.54014850       2.12241936      -1.00672960
C        2.93443894       2.62285900       0.28077990
C        3.68394852       3.54942870       1.07751954
C        4.30944872       4.32623816       1.74581933
H        2.28972912      -1.98117924      -0.50059980
H        3.92513847      -1.50477946      -0.00555000
H        3.27646875      -0.95160961      -1.55612946
H        2.17652917      -0.17924993       1.19999957
H        1.51576936       0.36050987      -0.34243986
H        4.33916855       0.93658966       0.70239973
H        2.87573886       1.97442925      -1.85047925
H        4.53037834       2.46578908      -1.28568947
H        1.85934937       2.78017902       0.27910990
H        4.86538839       5.01460791       2.33831930
