18
Properties=species:S:1:pos:R:3 pbc="F F F"
C        1.17170954      -0.13091995       0.06327998
C        2.66932893      -0.36706984      -0.06546997
N        3.39300871       0.67041975       0.66640979
C        4.84794807       0.51289982       0.57884979
C        5.49923801       1.80966938       1.06099963
C        5.31259823      -0.61654979       1.40483940
C        5.68962765      -1.53810942       2.07898927
H        0.62067980      -0.89204967      -0.49848980
H        0.88923967       0.85043967      -0.33272988
H        0.84989971      -0.18529993       1.10885966
H        2.94081903      -0.34028986      -1.12687957
H        2.90243888      -1.36529946       0.32089987
H        3.11752868       0.66123974       1.64781940
H        5.14595795       0.35877985      -0.46551982
H        5.24641800       2.02970934       2.10534930
H        5.18053770       2.66079903       0.44859985
H        6.59160757       1.74403942       0.99558967
H        6.02267790      -2.35438919       2.67658901
