11
Properties=species:S:1:pos:R:3 pbc="F F F"
N        0.94044966      -0.05692998      -0.00839000
C        2.09779930       0.00122000      -0.00402000
C        3.51939869       0.03708999       0.00135000
C        4.34834862       1.13956964       0.00410000
C        5.68414783       0.66585976       0.00932000
C        5.63137770      -0.71039975       0.00962000
N        4.31122828      -1.08311963       0.00475000
H        4.03022861       2.17510915       0.00253000
H        6.58647776       1.26477957       0.01251000
H        6.41727734      -1.45468950       0.01285999
H        3.97210836      -2.03724909       0.00380000
