19
Properties=species:S:1:pos:R:3 pbc="F F F"
C        2.16050911      -0.55580980      -1.31612945
N        2.29376912       0.07078997      -0.00599000
C        3.24796891       1.18776953      -0.09151997
C        2.54237890       2.48722911      -0.54462975
N        3.11979866       3.19817877       0.62463981
C        4.38395834       3.84098840       0.26742992
C        3.36136889       1.88956928       1.28290951
H        1.42941952      -1.36780953      -1.25728965
H        3.11076880      -0.98165965      -1.65379941
H        1.80119932       0.15501995      -2.06664920
H        2.56391907      -0.64018977       0.67351979
H        4.21076822       0.97106963      -0.56823981
H        1.44525945       2.46452904      -0.51624978
H        2.83928895       2.86022878      -1.53153944
H        4.88213825       4.20741844       1.17190957
H        4.19017839       4.71217823      -0.36825988
H        5.08583784       3.18666887      -0.26237988
H        4.32687855       1.77405930       1.78835928
H        2.57711887       1.63938940       2.00904918
