17
Properties=species:S:1:pos:R:3 pbc="F F F"
C        0.88878965      -0.01083000       0.17754993
C        2.38331914       0.02959999      -0.06171998
C        3.18600869       1.07404971       0.76545972
C        4.21225834      -0.00904000       1.20231962
C        5.55860806       0.01210999       0.50309980
C        3.21430898      -1.05452967       0.65627974
O        3.12707877      -2.26200914       0.74755973
H        0.44268984      -0.87822968      -0.31968990
H        0.41118985       0.88818961      -0.22527991
H        0.65040976      -0.07273997       1.24436951
H        2.62135887       0.06501997      -1.13278961
H        2.63241887       1.50441945       1.60913944
H        3.59621859       1.90083933       0.17633994
H        4.32725859      -0.07075997       2.29099894
H        5.44837809       0.05613998      -0.58578980
H        6.13478756      -0.88568968       0.74858969
H        6.14176750       0.88300967       0.81859970
