15
Properties=species:S:1:pos:R:3 pbc="F F F"
O        1.02003956      -0.08202997      -0.09611996
C        2.43796921       0.05863998      -0.02696999
C        3.34538865      -0.62598979      -1.09768951
C        4.39149857      -0.25954992       0.01934999
C        3.26821876      -0.80014968       0.97985965
O        4.40189838       1.19016957       0.14557995
C        2.99340868       1.48883951       0.10253996
H        0.68834972       0.20769992       0.77138972
H        3.46313882      -0.09632996      -2.04721928
H        3.17185879      -1.68959939      -1.29220951
H        5.37414837      -0.72963977       0.01712999
H        3.08708882      -1.88002932       0.98228967
H        3.31134868      -0.43466982       2.00966930
H        2.77040911       2.11240911      -0.76784968
H        2.68957901       1.97904921       1.03140962
