18
Properties=species:S:1:pos:R:3 pbc="F F F"
N        0.39018986      -0.11407996       0.38083985
C        1.79433930       0.02510999       0.01005000
C        2.36532903       1.41292953       0.21540992
C        1.67754936       2.45209908       0.72726971
C        3.80457854       1.59138942      -0.22626992
C        4.75204802       0.70279974       0.52979982
C        5.54624748      -0.21408993      -0.04080999
H        0.11296996      -1.08336961       0.24947990
H       -0.17086993       0.43198982      -0.26814991
H        1.90470934      -0.25643989      -1.04332960
H        2.36734915      -0.69340974       0.60555977
H        0.64750975       2.35065913       1.05548966
H        2.12795925       3.43195868       0.84620965
H        4.13026857       2.62968898      -0.07500997
H        3.86922860       1.40617943      -1.30658960
H        4.77909803       0.82599968       1.61165941
H        5.55704784      -0.37220988      -1.11346960
H        6.20502758      -0.82932973       0.56361979
