15

C    0.80068600  -0.21914000   0.01821300
C    2.21919500  -0.21835300  -0.46713300
O    2.49401500   0.56161300  -1.66226000
C    3.03650500   1.00737600  -0.48151400
C    4.55024000   1.05788900  -0.51845300
C    5.00003700   1.75297200   0.76544600
O    4.26466300   2.39930800   1.43950600
H    0.78518400  -0.59708600   1.05056000
H    0.19272200  -0.88976000  -0.60369100
H    0.36372900   0.78797800  -0.00069900
H    2.72762200  -1.18934800  -0.51480600
H    2.60563300   1.93865000  -0.04343300
H    4.91807600   1.71228700  -1.33201400
H    5.02520600   0.07400100  -0.65052800
H    6.08395000   1.64457100   1.01907700