12
Properties=species:S:1:pos:R:3 pbc="F F F"
C        1.02078962       0.01804999      -0.15432994
N        2.45159912       0.01599999       0.07187998
C        3.14445877      -1.25707948       0.02359999
C        3.16306877       1.19305956       0.17592993
O        4.37930870       1.29261947       0.27288988
H        0.60765982       1.02548969      -0.05596998
H        0.54354978      -0.63929975       0.57804978
H        0.82330972      -0.35171989      -1.16427958
H        2.67609906      -1.94351923       0.73409969
H        4.20259857      -1.14835954       0.27773988
H        3.06133890      -1.66297936      -0.98804963
H        2.51618910       2.08582926       0.17455992
