19
Properties=species:S:1:pos:R:3 pbc="F F F"
C        2.00407934      -0.23068991      -1.50829935
O        2.22278905       0.18446994      -0.16706993
C        2.96754885       1.39013946      -0.07321997
C        2.17014933       2.62490892      -0.47632983
C        2.93651891       3.76570845       0.17417993
C        3.50593877       3.18669891       1.46831942
C        3.29788876       1.67664933       1.38839948
H        1.48813939      -1.19456947      -1.48772943
H        2.95555878      -0.35726988      -2.03348923
H        1.37116945       0.48574981      -2.03927922
H        3.89707851       1.31261957      -0.65226972
H        1.14536953       2.56867909      -0.08934996
H        2.10258913       2.74378896      -1.56206942
H        3.75799847       4.08456850      -0.47837982
H        2.30067921       4.63751793       0.35583988
H        4.56871843       3.43541861       1.56229937
H        2.99477887       3.59749866       2.34535909
H        4.18053865       1.12062967       1.72119939
H        2.47009897       1.37177944       2.04095912
