17
Properties=species:S:1:pos:R:3 pbc="F F F"
C        0.97083962      -0.00087000       0.09182996
C        2.49138927      -0.00427000      -0.03594999
O        3.04201889      -0.00737000       1.28197956
C        2.99171901      -1.23687947      -0.82070971
C        3.46611857      -0.66880977      -2.11985922
C        3.46895862       0.66521978      -2.11715913
C        2.99761891       1.23032951      -0.81671971
H        0.47948983       0.00238000      -0.88734967
H        0.62872976       0.87692970       0.65288973
H        0.62519979      -0.87947965       0.64898974
H        4.01128864      -0.00889000       1.19753957
H        2.19465923      -1.96807921      -0.99496961
H        3.81795835      -1.74748933      -0.31176987
H        3.77745843      -1.28109956      -2.95515895
H        3.78348851       1.27939951      -2.95008874
H        3.82594848       1.73581934      -0.30438989
H        2.20272923       1.96570921      -0.98761964
