19
Properties=species:S:1:pos:R:3 pbc="F F F"
C        0.70946974      -0.11421996      -0.10668996
C        2.20128918      -0.32218987      -0.36475986
C        2.44319916      -0.77356976      -1.80462933
C        2.99906874       0.91954970      -0.01248999
C        2.80158877       2.16899920      -0.81877971
C        3.56401849       1.04510963       1.38790953
O        4.38018847       0.64596975       0.27862990
H        0.53355980       0.21031992       0.92473966
H        0.15515995      -1.04505968      -0.26722991
H        0.28579989       0.64598972      -0.77174973
H        2.52998900      -1.14275956       0.28710988
H        2.05969930      -0.04625998      -2.52808905
H        1.94433928      -1.72920930      -1.99830925
H        3.51304865      -0.90612966      -1.99847925
H        3.45153856       2.97907901      -0.47069982
H        1.76914930       2.52128911      -0.74126971
H        3.03277874       1.99792933      -1.87392926
H        3.31846881       0.29048991       2.12499905
H        3.73088861       2.03176928       1.80214942
