15
Properties=species:S:1:pos:R:3 pbc="F F F"
O        0.73044974       0.26387990      -0.35540986
C        2.12567925      -0.02344999      -0.41987985
C        2.89651895       0.95142967       0.47231984
N        4.33646822       0.66905975       0.41010985
C        5.09442806       1.63780940      -0.37809986
C        5.13644791       1.65906930       1.12724948
H        0.28310990      -0.40819985      -0.89798969
H        2.44440913       0.06562997      -1.46359944
H        2.27955914      -1.05625963      -0.08909997
H        2.54597902       0.83064967       1.50550950
H        2.63697910       1.98198926       0.19098993
H        4.56438828       2.42990923      -0.89223969
H        5.95703793       1.24682963      -0.90296972
H        6.02349806       1.27824950       1.61792934
H        4.62488842       2.45765901       1.65038943
