18
Properties=species:S:1:pos:R:3 pbc="F F F"
C        2.25105906      -0.66223973       1.43172944
C        2.67488909      -0.19168992       0.04971998
C        3.18405890       1.22173953       0.08436997
C        4.46203852       1.64055932       0.00202000
C        5.66300774       0.74118972      -0.09778997
C        4.79013824       3.11111879       0.01921999
H        1.85318935      -1.68055940       1.37845945
H        1.47150946      -0.01665999       1.84966922
H        3.09914899      -0.66616976       2.12438917
H        1.81218934      -0.22995992      -0.62654978
H        3.41173863      -0.88509965      -0.36595988
H        2.39803886       1.97245920       0.17120993
H        5.42382812      -0.31786990       0.02052999
H        6.38612795       0.99196965       0.68580973
H        6.15010786       0.87052965      -1.06972957
H        3.89386845       3.73684859       0.08421997
H        5.32399797       3.39002872      -0.89513963
H        5.42439795       3.34838867       0.87942964
