17
Properties=species:S:1:pos:R:3 pbc="F F F"
C        1.19806957       0.15341994       0.16191995
N        2.61949897      -0.01851999      -0.14249995
C        2.78303885      -0.74513972      -1.40263951
C        3.33049893       1.27249944      -0.16371994
C        3.81044865       1.86439931       1.13355958
C        4.80032825       1.30325949       0.15595995
H        1.07027960       0.64950973       1.13005960
H        0.69813973      -0.81824970       0.23674992
H        0.68500972       0.75188971      -0.59912980
H        2.30302930      -1.72814929      -1.34755945
H        3.84412861      -0.92311966      -1.60807943
H        2.35806918      -0.19657993      -2.25066924
H        2.98611903       1.97865927      -0.91777962
H        3.63604856       1.31011951       2.04834914
H        3.75990868       2.94002891       1.24720955
H        5.42252827       1.99753928      -0.39475986
H        5.29093790       0.37202987       0.41401982
