15
Properties=species:S:1:pos:R:3 pbc="F F F"
C        1.63373947      -0.68974972      -1.04258966
C        2.03538918       0.18209994      -0.10735996
C        3.08982897       1.25018954      -0.22695991
C        3.60670877       1.61212945      -1.63101947
C        3.72790861       3.08555889      -1.52204943
C        3.11386895       3.47223854      -0.41131985
O        2.56063890       2.47087908       0.35785985
H        0.85543966      -1.41375947      -0.81748968
H        2.05514908      -0.71755970      -2.04120922
H        1.56263947       0.12728995       0.87247968
H        3.93841863       0.95023966       0.40427986
H        2.90737891       1.36556947      -2.43577909
H        4.56547832       1.12654960      -1.83615935
H        4.18124819       3.73599839      -2.25369930
H        2.95021892       4.47124815      -0.04311998
