17
Properties=species:S:1:pos:R:3 pbc="F F F"
C        0.70573974       1.07613957      -0.43452981
C       -0.52247977       0.30095989      -0.04198998
C        0.81569970      -0.38347986      -0.08546997
C        1.57426941      -0.89282972       1.11748958
C        1.44011950      -0.25872990       2.50948906
O        1.31869948      -1.56378949       3.13148880
C        1.09472954      -2.16562939       1.83284938
H        0.81714970       1.35927951      -1.47494936
H        1.08613956       1.81081939       0.26584992
H       -1.24016953       0.06200998      -0.81951970
H       -0.97670966       0.51893979       0.91687965
H        0.98331964      -1.07353961      -0.90795964
H        2.63437891      -0.97893965       0.83521968
H        0.54777980       0.34524989       2.69738889
H        2.32533908       0.27882990       2.86181903
H        1.71817935      -3.05021882       1.67818940
H        0.04026998      -2.42605901       1.69614947
