15

C    4.67505200  -1.01327400  -2.36362300
C    4.19798400  -0.53585200  -1.34035100
C    3.66045900   0.02785400  -0.13207800
C    4.26853500   1.38141400   0.27108600
C    5.80128000   1.25590700   0.21524000
C    6.53870000   1.90523100  -0.88126000
O    6.50543800   2.41841700   0.45060400
H    5.07769100  -1.45153400  -3.26487400
H    3.71754400  -0.71430200   0.68040500
H    2.57840400   0.22500800  -0.29917400
H    3.94192800   1.63917300   1.28843300
H    3.95755300   2.19090400  -0.40451300
H    6.19792600   0.38302100   0.75994700
H    5.97168400   2.49692000  -1.61001200
H    7.53985400   1.58491100  -1.19112700