19
Properties=species:S:1:pos:R:3 pbc="F F F"
C        2.39288926      -1.43668938      -0.47067982
C        1.84286928      -0.07389997      -0.07430997
O        0.94543964      -0.21820992       1.02268970
C        2.92176890       0.93748969       0.28458989
C        3.92647862       0.51330984       1.32834947
C        3.41694880       1.85864937      -0.81361967
C        2.52602887       2.40109897       0.26646990
H        3.11266875      -1.35233951      -1.29025960
H        1.57690942      -2.09590936      -0.78591973
H        2.88146877      -1.93493927       0.37319985
H        1.24538958       0.30620989      -0.91157967
H        1.44373941      -0.60076976       1.76235938
H        4.60856819       1.33036947       1.58958948
H        4.54003859      -0.31577989       0.96211958
H        3.42727876       0.19805993       2.24954915
H        2.99926901       1.75988936      -1.80974936
H        4.45817804       2.16241908      -0.81032968
H        2.96199894       3.06971884       1.00032961
H        1.50276947       2.65386915       0.00821000
