12
Properties=species:S:1:pos:R:3 pbc="F F F"
O        0.95673966      -0.00962000      -0.17614993
C        2.37198901      -0.00436000       0.01313000
C        2.92738891       1.43281937       0.00000000
O        2.46703887       2.15796924       1.14331961
C        4.37138844       1.43281937       0.00000000
C        5.56154823       1.43281937       0.00000000
H        0.66179973      -0.93436968      -0.12345995
H        2.81823897      -0.60208976      -0.78927970
H        2.57863903      -0.49139979       0.97285962
H        2.53924918       1.96141922      -0.87701970
H        2.72893882       1.65148938       1.92863929
H        6.62738752       1.44534945      -0.00069000
