21
Properties=species:S:1:pos:R:3 pbc="F F F"
C        0.90928966      -0.06939998      -0.01962999
C        2.43766904       0.02956999      -0.05412998
C        2.97011876      -0.78858972      -1.23977959
C        2.97726893       1.49052942      -0.03899999
C        2.58190894       2.30525899      -1.27445948
C        2.54578900       2.24500918       1.22563958
O        4.41047859       1.44376945      -0.02410999
H        0.49478981       0.41275984       0.87013972
H        0.59417975      -1.11875963       0.00885000
H        0.45319980       0.38646987      -0.90367967
H        2.81828880      -0.46938983       0.84872967
H        2.57914901      -0.42124984      -2.19363928
H        2.67018914      -1.83817935      -1.14459956
H        4.06350851      -0.76571971      -1.28395951
H        2.96924877       1.85431933      -2.19378924
H        3.02108884       3.30940866      -1.22909951
H        1.49733937       2.41671896      -1.36667943
H        2.80814886       1.67848933       2.12626910
H        1.47025943       2.44617891       1.24171948
H        3.07113886       3.20435882       1.30300951
H        4.68563795       0.95111966       0.76785976
