10
Properties=species:S:1:pos:R:3 pbc="F F F"
C        0.98603958       0.01481999      -0.00654000
C        2.48586917      -0.00007000      -0.00315000
C        3.16759896      -1.15817952       0.00516000
C        3.19070888       1.24248946      -0.00623000
N        3.76084852       2.25259924      -0.00803000
H        0.59303981       1.03707957       0.02191999
H        0.59203976      -0.51385981       0.86801964
H        0.59805977      -0.46365982      -0.91210961
H        2.65457916      -2.11533928       0.00789000
H        4.25463867      -1.18188965       0.00842000
