14

N    1.21860700   0.14025800   0.65197600
C    2.35432100   0.08847000   0.02626600
N    2.99769900   1.25623100  -0.15381400
C    2.65838600   2.62454700   0.23003300
C    3.97628300   3.10038600  -0.41792900
C    4.26002200   1.62868300  -0.78679900
H    0.78861900  -0.78592400   0.75108900
H    2.85540200  -0.80458400  -0.37647000
H    2.55661800   2.72256400   1.32315500
H    1.71116000   2.94872600  -0.23102800
H    3.84723300   3.76755000  -1.27763000
H    4.69596700   3.54034100   0.28160200
H    4.26933300   1.36715100  -1.85815200
H    5.11899400   1.13984300  -0.29741900