18

C    2.79997900  -0.90907500  -1.04989500
C    2.40183900   0.06330800   0.06089400
C    3.06982000   1.42291700  -0.11644300
C    2.55772700   2.48277000   1.16920900
N    1.20063100   2.62422400   1.18432000
C    4.49708200   1.43497700  -0.05560900
C    5.70966400   1.44688400   0.02202700
H    2.25572200  -1.85467100  -0.92122200
H    3.87598100  -1.12995800  -1.02352700
H    2.55144700  -0.50852700  -2.04341900
H    2.67447800  -0.35576700   1.04308800
H    1.31017100   0.20918300   0.05140300
H    2.71064800   1.95881900  -1.00958600
H    3.07900200   3.41718700   0.92932100
H    2.94315400   1.97409400   2.06135000
H    0.73129000   3.31883500   0.60575200
H    0.60149400   1.96986200   1.68400600
H    6.78671200   1.44979800   0.07038200