15
Properties=species:S:1:pos:R:3 pbc="F F F"
C        0.99929959      -0.03240999       0.15050994
C        2.51999903       0.00000000       0.00000000
O        3.09829879      -0.69635969       1.11402953
C        2.94654894      -0.75463974      -1.27865958
O        4.36506844      -0.95915961      -1.31037951
C        3.00201893       1.36116946       0.00000000
C        3.39929867       2.48306894       0.00000000
H        0.49719983       0.46517983      -0.68666977
H        0.68378979       0.46190983       1.07744956
H        0.63426977      -1.06416965       0.21154992
H        2.93424892      -0.14624994       1.90036929
H        2.65515900      -0.21958992      -2.18892932
H        2.49291897      -1.75172925      -1.30372953
H        4.60697842      -1.16836953      -0.38584986
H        3.76536870       3.48412871      -0.00761000
