19

C    0.93899800  -0.24262700  -0.07348200
C    2.50758100  -0.26560000  -0.07211900
C    3.04375200  -1.22284900  -1.14036600
C    2.90423200   1.12731500  -0.29934800
C    3.24396700   2.02418200   0.71832200
C    3.64056900   3.40736100   0.45824800
O    4.01040600   4.05283000   1.60182900
H    0.53046800   0.40120800   0.71697400
H    0.60798900  -1.27464500   0.11277000
H    0.54628600   0.08090900  -1.04775300
H    2.82635800  -0.58269600   0.93396300
H    2.70134400  -0.93408200  -2.14567100
H    2.67828900  -2.23854400  -0.93757800
H    4.14214200  -1.25032000  -1.13730400
H    2.88858600   1.49698100  -1.33539900
H    3.20772200   1.69671000   1.76582500
H    2.75012300   3.86795900  -0.05649300
H    4.41166900   3.41793200  -0.35254200
H    4.29524900   4.95516900   1.41896400