17

N    1.12459700  -0.04648500   0.60851400
C    2.44440800  -0.03322700   0.23307900
C    2.79426700   1.34691400  -0.76249500
N    4.05887900   1.17826200  -1.26972500
C    4.28653200   0.08945700  -2.19427900
C    3.71308200  -1.18512100  -1.62111500
C    2.88630800  -1.22366400  -0.57384600
H    0.80515300   0.46361700   1.42356300
H    0.40916800  -0.40106400  -0.01742900
H    3.08971100   0.15566100   1.10530100
H    2.01582900   1.29111300  -1.53461500
H    2.68923000   2.22426200  -0.11509100
H    4.84580100   1.47782800  -0.69866900
H    5.36512800  -0.01540100  -2.37422500
H    3.81725900   0.31409600  -3.16747600
H    4.00215300  -2.11499100  -2.11817800
H    2.48780700  -2.18486700  -0.23532900