15
Properties=species:S:1:pos:R:3 pbc="F F F"
C        4.45749855      -0.89359969       0.55281985
O        3.27837873      -0.13603996       0.29964989
C        3.41447878       1.22296953       0.19929992
C        4.52937841       1.96205926       0.27230990
C        4.54178810       3.44502878       0.16007994
C        3.24452877       4.20990849       0.13314995
O        5.62863779       4.01774836       0.08855997
H        4.17237854      -1.94760931       0.62065977
H        4.91022825      -0.60362977       1.50684953
H        5.17428827      -0.78794974      -0.26794991
H        2.42664909       1.64130938       0.03778999
H        5.51193762       1.52741945       0.41235983
H        2.59159899       3.88634849       0.94813961
H        2.75217915       4.07625818      -0.83309966
H        3.45274878       5.27427816       0.27956989
