18
Properties=species:S:1:pos:R:3 pbc="F F F"
C        0.93536967      -0.07993997       0.06118998
N        2.39033914      -0.08933996       0.12242995
C        2.93051910       1.24779952      -0.10549996
C        4.42431831       1.19466960      -0.01875999
C        5.24922800       1.57878935      -1.00470960
C        6.68602753       1.51993942      -0.88927966
C        7.51217699       1.90308928      -1.86899936
H        0.55670983      -1.09086955       0.24104992
H        0.57647979       0.24360991      -0.92139965
H        0.51016980       0.57258976       0.83061969
H        2.75050902      -0.71238977      -0.60015976
H        2.56694913       1.93865931       0.66419971
H        2.60877895       1.63143945      -1.08121967
H        4.82916832       0.82583970       0.92162967
H        4.83676815       1.95135927      -1.94039929
H        7.10726738       1.14368951       0.04149998
H        7.14796734       2.28510904      -2.81743908
H        8.58789635       1.84004927      -1.73753929
