19
Properties=species:S:1:pos:R:3 pbc="F F F"
C        0.97931963      -0.10946996       0.00500000
C        2.50889897      -0.00662000      -0.01857999
C        3.03669882      -0.78236973      -1.23474956
C        2.99604893       1.46651936      -0.02573999
C        2.47965908       2.27222919       1.16876948
N        4.46203852       1.51862943      -0.02175999
H        0.56722975       0.28620988       0.93775970
H        0.65791976      -1.15404952      -0.06753997
H        0.53286982       0.44032985      -0.82991964
H        2.88839889      -0.50469983       0.88467968
H        2.71383882      -0.31495988      -2.17109942
H        2.66744900      -1.81352937      -1.22736955
H        4.12992859      -0.83157969      -1.23669946
H        2.64766908       1.95239925      -0.94511968
H        2.73482895       1.78961933       2.11902928
H        1.39253950       2.39264917       1.12684965
H        2.90725875       3.28168869       1.17771959
H        4.81883812       1.09649956       0.83489966
H        4.77249813       2.48902917      -0.00984000
