15
Properties=species:S:1:pos:R:3 pbc="F F F"
C        0.77447969       1.35953951      -0.09492996
C       -0.72213972       1.17838955       0.18855993
C       -0.99363965      -0.24583991      -0.19654992
N       -0.74582970      -1.34457958       0.72282970
C        0.31245989      -0.98312968      -0.20597991
C        1.39580953      -0.01685999       0.17298993
H        0.91246963       1.61796939      -1.15234959
H        1.22623956       2.15221906       0.50786984
H       -1.32130957       1.88114929      -0.39844987
H       -0.93953961       1.34317946       1.25006950
H       -1.68843937      -0.39364985      -1.01044965
H       -0.54972976      -1.00940967       1.66711938
H        0.53598982      -1.64901936      -1.02674961
H        1.66116941      -0.12462995       1.23093951
H        2.30047917      -0.16303994      -0.42513984
