19
Properties=species:S:1:pos:R:3 pbc="F F F"
C        1.19194949      -0.53357983       0.75055969
C        2.69550896      -0.67301977       0.56573981
C        3.31323862       0.62783980       0.04004999
N        4.77085829       0.48688981      -0.17931993
C        5.23416805       1.66404939      -0.93701965
N        5.48488760       0.23256990       0.95552969
C        6.48969746      -0.55221975       0.74696976
H        0.76630974      -1.47157943       1.12166965
H        0.70000976      -0.28927988      -0.19662993
H        0.95744967       0.25488991       1.47305942
H        2.89577889      -1.49217951      -0.13609995
H        3.14311886      -0.95150965       1.52718937
H        3.11359906       1.44779944       0.74154973
H        2.81948900       0.87562966      -0.90785968
H        4.70254850       1.75135934      -1.89030921
H        6.29830742       1.56703949      -1.17737961
H        5.09724808       2.58848906      -0.36531988
H        7.14416742      -0.83028972       1.58788943
H        6.74159718      -0.97495961      -0.24094991
