12
Properties=species:S:1:pos:R:3 pbc="F F F"
C        1.00261962       0.00806000      -0.00478000
C        2.50846887       0.03130999      -0.00203000
C        3.22691894      -1.29535961      -0.00615000
N        3.10927868       1.18392956       0.00076000
O        4.50009823       1.03159964       0.00050000
H        0.59878975       1.02420962       0.00372000
H        0.64770973      -0.52528983       0.88127965
H        0.65111977      -0.50917983      -0.90167964
H        2.50717902      -2.11839914       0.00329000
H        3.86084843      -1.37423944       0.88131964
H        3.84202862      -1.37758958      -0.90644968
H        4.81043816       1.95627928       0.00288000
