16
Properties=species:S:1:pos:R:3 pbc="F F F"
C        1.53457940      -0.18787993       0.71303976
O        2.95170879      -0.10614996       0.69672978
C        3.40389872       1.02033961      -0.04935998
C        4.90913820       1.03985953      -0.02381999
C        5.59608746      -0.15111995      -0.62789977
C        5.60437775       2.06608915       0.49533984
H        1.24647963      -1.07005954       1.29177952
H        1.14417958      -0.29517987      -0.30378991
H        1.10417962       0.69793975       1.19047964
H        2.98811889       1.93674934       0.38810986
H        3.05518889       0.94446969      -1.08653951
H        5.28819799      -0.27881989      -1.67150939
H        5.34520769      -1.06380951      -0.07687997
H        6.68678761      -0.04699998      -0.61535972
H        5.10770798       2.92597890       0.93396968
H        6.69027710       2.06732917       0.50680977
