17
Properties=species:S:1:pos:R:3 pbc="F F F"
C        0.76596969       0.01899999       0.09738997
C        2.25619912       0.02066999       0.16162995
C        3.10621881      -0.84249967      -0.74145973
C        2.63685894      -1.42365944      -2.02965927
O        2.65798903      -0.36283988      -2.99886894
C        2.65065885       0.89839965      -2.31019926
C        3.11446881       0.63563973      -0.91965961
H        0.37684986       0.95743960       0.50614977
H        0.36929986      -0.80186969       0.70142972
H        0.37491983      -0.09112997      -0.91714966
H        2.59419894       0.14173993       1.18615961
H        3.98851848      -1.32294941      -0.34252989
H        3.29976869      -2.21990919      -2.38081908
H        1.62097943      -1.82382929      -1.96133924
H        3.32315874       1.57978940      -2.83984876
H        1.63997936       1.31595945      -2.34141922
H        4.00196838       1.18750954      -0.64488977
