12
Properties=species:S:1:pos:R:3 pbc="F F F"
C        0.93361968       0.09380996      -0.01804999
C        2.43015909      -0.01124000      -0.01940999
C        3.07350874      -1.18859959      -0.10544996
N        2.54214907      -2.45185900      -0.19071993
C        3.19579887       1.19362962       0.05781998
N        3.81327844       2.17184925       0.12561996
H        0.60330981       1.13764966      -0.06133997
H        0.51818979      -0.34667987       0.89426970
H        0.50506979      -0.41831985      -0.88601965
H        4.16506815      -1.21265948      -0.12273995
H        1.57240939      -2.53897905       0.10332996
H        3.13762879      -3.18538880       0.19026993
