14
Properties=species:S:1:pos:R:3 pbc="F F F"
C        1.48378944      -0.45886981      -0.95334965
N        2.79816890      -0.31390986      -0.32949987
N        3.21532893       0.96847963      -0.16746993
C        4.49172831       1.12374961       0.01713999
C        5.55417776       0.07088998       0.06088998
C        4.87040806       2.50929904       0.18502992
N        5.21912813       3.60789871       0.33109987
H        1.24308956      -1.52017939      -1.06512964
H        1.47648954      -0.00409000      -1.94887924
H        0.70625973       0.01048000      -0.34245986
H        2.75934911      -0.79515970       0.57459980
H        5.33197784      -0.64523971       0.85713971
H        6.53606749       0.51299977       0.25180990
H        5.58689785      -0.45697984      -0.89652967
