10
Properties=species:S:1:pos:R:3 pbc="F F F"
C        0.96863967      -0.00055000      -0.04266999
C        2.30874896       0.00696000      -0.00248000
C        3.02160883      -1.30053949       0.01807999
O        4.24187803      -1.40812945       0.05459998
C        3.03108883       1.23254955       0.01994999
C        3.64105868       2.26668930       0.03888999
H        0.40568984       0.92890966      -0.05896998
H        0.39103985      -0.91888964      -0.06056998
H        2.37468910      -2.19377899      -0.00188000
H        4.19360876       3.17705870       0.05602998
