17

C    1.96797600  -0.64030800   0.03268900
N    2.68857600   0.41586400  -0.61408000
C    3.57540800   1.33194700   0.04452100
C    4.90660700   0.56600400   0.04190500
C    5.19753100  -0.29042200   1.23533600
C    5.70486600   0.67234500  -1.03667900
H    2.48181400  -1.60734500  -0.12442300
H    0.96951200  -0.72601700  -0.42550600
H    1.87670300  -0.43681200   1.10590800
H    2.71220600   0.40643200  -1.63671900
H    3.21839100   1.53552900   1.06297200
H    3.63540300   2.26673200  -0.52685300
H    5.22705000   0.32140500   2.15047200
H    6.16046500  -0.80517100   1.12524400
H    4.42564800  -1.06261500   1.38823100
H    5.44461700   1.29528300  -1.89738100
H    6.67468100   0.16874800  -1.06756600