14
Properties=species:S:1:pos:R:3 pbc="F F F"
C        1.33357954      -0.29546988      -0.06489997
O        2.71424890      -0.02536999       0.13869995
C        3.01408887       1.35844946      -0.08374996
C        4.52089787       1.57603931       0.09232996
N        5.28406811       0.85431963      -0.93175966
H        1.15779948      -1.35618949       0.13234995
H        1.05054963      -0.08102997      -1.09979951
H        0.72161973       0.29460990       0.62391979
H        2.47003913       1.96486926       0.64909977
H        2.69919920       1.65162933      -1.09240949
H        4.82957792       1.20855951       1.07712960
H        4.75679827       2.64248896       0.02973999
H        4.93727779      -0.10876996      -0.94469965
H        6.25962734       0.79912972      -0.64427972
