19
Properties=species:S:1:pos:R:3 pbc="F F F"
C        1.31645954      -0.05923998       0.99675965
C        2.24776912       0.21208991      -0.17333993
C        3.32142878       1.18295956       0.19886993
O        3.65584874       2.12465930      -0.83049971
C        3.02439880       2.65502906       0.34213987
C        3.90235853       3.51655865       1.19344950
C        3.49781871       4.97929811       1.11587965
H        0.56950974      -0.81102973       0.72410971
H        0.78745967       0.85219967       1.29547954
H        1.87128925      -0.42325982       1.86763930
H        1.66175938       0.58232975      -1.02241957
H        2.71396899      -0.72713971      -0.49184981
H        4.12477827       0.74431968       0.77569973
H        1.99555922       2.98245883       0.28067988
H        4.95235825       3.41574883       0.89328969
H        3.83198857       3.18077898       2.23420906
H        3.53257871       5.34343815       0.08421997
H        4.16883850       5.59420776       1.72317934
H        2.47729897       5.12090826       1.48732936
