18
Properties=species:S:1:pos:R:3 pbc="F F F"
C        1.07091963       0.19336993      -0.23807991
N        2.49787903       0.13559996       0.05865998
C        3.22701883      -0.80862969      -0.77243972
C        3.33348870       0.68522978      -1.00934970
C        4.56801844       1.38891947      -0.62209976
C        4.40627813       2.53275919       0.34590986
C        5.78121805       1.09036958      -1.12118959
H        0.67289972       1.16687953       0.06536997
H        0.54576981      -0.57406980       0.33924988
H        0.82230967       0.04464998      -1.29579949
H        2.67858887      -1.40612948      -1.49102950
H        4.04659843      -1.32354951      -0.28492990
H        2.83639884       1.09475958      -1.88419926
H        3.65664864       3.24055862      -0.02460999
H        5.33997822       3.08764887       0.49004984
H        4.08406830       2.16600919       1.32592952
H        5.91131735       0.28231987      -1.83400929
H        6.67006731       1.63843942      -0.82634968
