12

C    0.92757400  -0.04262200  -0.00411500
C    2.44344100  -0.04711700  -0.00311900
C    3.07453400   1.31624600   0.00768800
C    4.47845900   1.46589200   0.00925600
N    5.65493100   1.61667700   0.01075700
H    0.55586600  -1.07487600  -0.01179700
H    0.52149300   0.46635500  -0.89192500
H    0.52025800   0.45361400   0.89030900
H    2.84911400  -0.62071900  -0.86825700
H    2.84788800  -0.63343800   0.85407700
H    2.69024100   1.99670100   0.83097100
H    2.69117900   2.00889500  -0.80590500