11
Properties=species:S:1:pos:R:3 pbc="F F F"
O        1.17444956       0.09434997       0.41158986
C        2.31400919      -0.02995999       0.02489999
O        3.12423873       0.92370969      -0.50993979
C        4.21519852      -0.01673999      -0.69062972
C        3.39577866      -1.13527966      -0.04222998
C        3.05823874      -2.26310921      -0.88287961
C        2.78350902      -3.20382881      -1.57704949
H        4.46462822      -0.13596995      -1.74996936
H        5.10708761       0.29031989      -0.13569996
H        3.75292873      -1.42096949       0.95336962
H        2.53294921      -4.03876829      -2.19132924
