19
Properties=species:S:1:pos:R:3 pbc="F F F"
C        2.91426897      -0.89540964      -1.02040958
C        2.45850921      -0.01557999       0.13513996
C        3.06345892       1.39962947       0.09582996
C        2.43301916       2.26029921       1.19546962
C        4.55935860       1.36092949       0.27102989
C        5.49069786       1.52656949      -0.90452969
O        5.21826792       2.60666895      -0.00307000
H        2.39740920      -1.86012924      -0.98344964
H        3.98947859      -1.09361959      -0.97362965
H        2.68918896      -0.42722985      -1.98417926
H        2.71348882      -0.51073980       1.08012962
H        1.36481953       0.05749998       0.09907996
H        2.81567907       1.85839927      -0.87027967
H        2.65274906       1.85727930       2.18985915
H        1.34584951       2.31036925       1.07770956
H        2.82127905       3.28349853       1.16001952
H        4.89199829       0.80179965       1.13521957
H        5.07534790       1.59559941      -1.90247929
H        6.46934748       1.06908953      -0.85302967
