18
Properties=species:S:1:pos:R:3 pbc="F F F"
C        0.91817963       0.06398997      -0.02381999
C        2.41926908      -0.16510993       0.06425998
C        3.19351888       1.14452958      -0.10060997
C        4.68961859       0.95228964       0.00639000
C        5.37318802       0.29174989      -1.15769958
C        5.38009834       1.38245952       1.07533956
H        0.38223985      -0.88185966       0.10566996
H        0.64171976       0.47971982      -0.99873960
H        0.57887977       0.75557971       0.75391972
H        2.71133900      -0.88274968      -0.71022975
H        2.65602899      -0.62059981       1.03268957
H        2.85137892       1.86060929       0.65895975
H        2.96056890       1.60095930      -1.07118964
H        5.01639795      -0.73439974      -1.28521955
H        6.45946741       0.24924991      -1.02467954
H        5.17462778       0.84771967      -2.07956910
H        4.88819790       1.87065935       1.91141927
H        6.45620775       1.25622952       1.14565969
