13
Properties=species:S:1:pos:R:3 pbc="F F F"
N        1.76251936      -0.69847977       0.12401996
C        2.34264922       0.38185987      -0.27227992
C        2.15211916       0.56233978      -1.69218934
C        1.99025929       0.70739973      -2.87464881
N        3.04766893       1.25132954       0.52974981
C        4.23542833       1.92131925      -0.01650999
C        2.98401880       2.69178891       0.24849992
H        1.93377924      -0.76820970       1.13213956
H        1.83543932       0.81731969      -3.92206860
H        4.50423813       1.66755939      -1.03195965
H        5.04506826       1.98337924       0.69745976
H        2.92239904       3.29017878       1.14696956
H        2.35376930       2.99157882      -0.57654983
