10
Properties=species:S:1:pos:R:3 pbc="F F F"
C        1.00011957      -0.05479998       0.00296000
C        2.51999903       0.00000000       0.00000000
C        3.00201893       1.36116946       0.00000000
C        3.39929867       2.48306894       0.00000000
H        0.65815973      -1.09406960       0.00206000
H        0.58494979       0.44111982      -0.88058966
H        0.58855975       0.43840984       0.88970971
H        2.89575887      -0.53278983      -0.88075966
H        2.89927888      -0.53414983       0.87842965
H        3.75485849       3.48770857       0.00000000
