20
Properties=species:S:1:pos:R:3 pbc="F F F"
C        0.99892962      -0.00658000      -0.17594993
C        2.51621914       0.00767000      -0.06822997
N        3.00185895       1.38673949      -0.07058997
C        4.45630836       1.42604947       0.04551999
C        4.91149855       2.85294890       0.03785999
C        5.59699821       3.43584871       1.03499961
C        6.05711746       4.85660839       1.01242959
H        0.63190979      -1.03771961      -0.17650993
H        0.66344970       0.47137982      -1.10234964
H        0.53544980       0.51536983       0.66779971
H        2.93755889      -0.54467982      -0.91582960
H        2.81384873      -0.50388980       0.85448968
H        2.59966898       1.88868928       0.72026974
H        4.91867828       0.91401964      -0.80608970
H        4.78377819       0.91883969       0.96111959
H        4.66345835       3.42519879      -0.85432971
H        5.84628773       2.86417890       1.92615938
H        5.81241798       5.35697794       0.07000997
H        7.14216709       4.89785814       1.14759958
H        5.58719826       5.41375828       1.82870936
