13

C    0.93455100  -0.01329400  -0.10489000
C    2.76203200  -0.03895600   0.10991000
O    2.93761500  -0.69915500   1.26350100
C    3.06618800  -0.80595900  -1.06072700
C    3.29002800  -1.45295000  -2.06541600
C    3.06147800   1.36713700   0.07150700
C    3.29720900   2.55626500   0.05931600
H    0.74626300   0.46542200  -1.06998600
H    0.63662100   0.57777400   0.76661000
H    0.67634600  -1.07468800  -0.04678200
H    2.99635000  -0.09258600   2.01853800
H    3.51309800  -2.02684500  -2.95282100
H    3.52476900   3.61167400   0.04379900