12
Properties=species:S:1:pos:R:3 pbc="F F F"
C        0.40668982       1.45978951       0.52440983
C        0.85427964       0.36661986      -0.40406984
O        0.92256963      -1.00969958       0.11467995
C       -0.41070986      -1.37774956       0.27634987
C       -1.28961957      -0.40566984       0.02412999
C       -0.60559976       0.81671971      -0.38566986
H        0.71764970       2.47249913       0.29616988
H        0.36774984       1.24549949       1.58630931
H        1.46620941       0.62238973      -1.25999951
H       -0.57306975      -2.38954902       0.60150981
H       -2.36308908      -0.49730980       0.10646996
H       -0.98148960       1.35109949      -1.24743962
