19
Properties=species:S:1:pos:R:3 pbc="F F F"
C        3.14566875      -1.11502969       0.26639989
O        4.04824877      -0.01738999       0.30855986
C        3.44252872       1.17825961      -0.18703993
C        4.47814798       2.29615927      -0.11838996
C        3.91401839       3.63026857      -0.60143977
C        4.93861818       4.74974823      -0.47725981
O        3.51133871       3.52369857      -1.96458924
H        3.66296864      -2.00054932       0.64525974
H        2.82657886      -1.31018949      -0.76203972
H        2.27588916      -0.91949964       0.90085965
H        2.57176900       1.42790937       0.43013984
H        3.11550879       1.01702964      -1.22038960
H        5.34295797       2.00471926      -0.72796971
H        4.84501791       2.38787913       0.91148967
H        3.02486897       3.89255834      -0.01784999
H        5.82986784       4.53695869      -1.07800961
H        5.24456787       4.89500809       0.56321979
H        4.52289820       5.69060802      -0.85408968
H        4.30726862       3.35393858      -2.49868917
