15

C    2.92025900   2.72616000  -3.12136500
C    2.05994700   2.65449300  -2.00582200
O    2.41137200   2.61796900  -0.78145900
C    3.79176700   2.73426400  -0.34907500
O    4.27597000   3.86822700  -0.94222100
C    5.47458800   4.37605400  -0.49244300
C    6.30507500   3.77910100   0.35685400
H    2.47205500   2.82096900  -4.11375000
H    4.00747200   2.68154800  -3.03054900
H    0.97182900   2.60593700  -2.13842000
H    4.31312100   1.80780300  -0.65659500
H    3.72965400   2.80289600   0.74712500
H    5.65104500   5.35489100  -0.93954600
H    6.13230700   2.79703800   0.80280200
H    7.22245600   4.29647200   0.63831900