15
Properties=species:S:1:pos:R:3 pbc="F F F"
N        1.21155965       0.14600994       0.51844978
C        2.31848907      -0.10618996      -0.06706997
N        2.75818896      -1.27872956      -0.58538979
C        4.13597822      -1.27961957      -1.03226960
C        4.54491854       0.16432995      -0.88393968
C        3.86260843       1.28154945      -1.63441932
C        3.38092875       0.90471965      -0.25749990
H        1.17693961       1.13127947       0.79395968
H        2.26564908      -2.13318920      -0.36837986
H        4.74410820      -1.92390931      -0.39025986
H        4.21333838      -1.61392939      -2.07059908
H        5.54070807       0.31066987      -0.49406981
H        4.39318800       2.22003913      -1.74262929
H        3.23277879       1.03001964      -2.48080921
H        3.59576869       1.56389940       0.57337976
