15
Properties=species:S:1:pos:R:3 pbc="F F F"
C        1.01191962      -0.02935999       0.23837991
C        2.51999903       0.00000000       0.00000000
O        2.74920893      -0.63888973      -1.26551950
C        3.99971843      -1.09648955      -1.57112932
C        5.13917828      -0.98615962      -0.88058966
C        3.00201893       1.36116946       0.00000000
C        3.39929867       2.48306894       0.00000000
H        0.74764973       0.42764986       1.19775963
H        0.64465976      -1.06153953       0.23117991
H        0.47381982       0.50163984      -0.55577981
H        2.98640895      -0.58825982       0.79986972
H        3.96572852      -1.59868932      -2.53318906
H        5.21213770      -0.47334981       0.07074997
H        6.05736780      -1.40533948      -1.28124952
H        3.75578856       3.48717856      -0.00916000
