15
Properties=species:S:1:pos:R:3 pbc="F F F"
C        0.98709965      -0.15803994       0.00636000
C        2.50712919      -0.04588998       0.02002999
C        3.09854889      -0.73001969      -1.14637947
C        3.57702851      -1.29718947      -2.09108925
C        2.90876889       1.42112947       0.10775996
C        2.96095896       2.23620915      -1.16153955
O        3.12342882       1.95418930       1.20022953
H        0.54995978       0.35074985       0.87250966
H        0.67051971      -1.20673954       0.03379998
H        0.55540979       0.29454988      -0.89382970
H        2.88723898      -0.53325981       0.92689967
H        4.00237846      -1.80496931      -2.92674899
H        2.03129911       2.12018919      -1.72290945
H        3.81542850       1.92931926      -1.76936936
H        3.07830882       3.29464865      -0.90848970
