20

C    0.97662200  -0.03803000  -0.05422900
N    2.27773900  -0.05059300   0.52313300
C    3.19311400   1.00581100   0.88439700
C    4.14277600  -0.04646100   1.48537500
C    3.11722900  -1.13667700   1.06038000
C    2.40836800  -1.87284200   2.19772300
C    3.57794300  -2.08376900  -0.04898400
H    0.79042500  -0.98546200  -0.57846700
H    0.87452400   0.81857300  -0.73477200
H    0.22573700   0.06745500   0.75274600
H    2.72895800   1.73450700   1.57312200
H    3.54298600   1.56236700  -0.00369900
H    5.11789300  -0.11973600   0.98967400
H    4.28781500   0.03928200   2.56881800
H    2.04877700  -1.17789000   2.96978200
H    3.12886900  -2.56016100   2.66318700
H    1.56317600  -2.46712500   1.82157100
H    4.03839500  -1.53822500  -0.88458400
H    2.74412900  -2.69209100  -0.42762000
H    4.33085500  -2.76334600   0.37464000