17
Properties=species:S:1:pos:R:3 pbc="F F F"
C        1.13839960      -0.25594988      -0.04296998
N        2.54182887       0.11435996      -0.11643995
C        2.87975907       1.36498952      -0.05580998
C        1.89023936       2.50507927       0.08515997
N        4.22690868       1.63613939      -0.09248997
C        4.93151808       2.80170894       0.02428999
C        6.26089764       2.92905903      -0.02380999
H        1.06309962      -1.34570944       0.03095999
H        0.60068977       0.04627998      -0.94685960
H        0.64955980       0.16015993       0.84386969
H        0.89089966       2.23540926      -0.26042989
H        2.21146917       3.36466885      -0.50965983
H        1.83583939       2.79807901       1.13765955
H        4.78571844       0.79439968      -0.19165993
H        4.32222843       3.68906856       0.17351992
H        6.91292715       2.07459927      -0.16836995
H        6.72623730       3.90391874       0.08024997
