15

C    1.01582400  -0.08026900  -0.02308500
N    2.26610300  -0.01408800   0.65249400
C    3.18335600   1.06581900   0.95113500
C    4.25807700   0.03017100   1.33868600
C    3.17400000  -1.06522500   1.12320700
C    3.38654100  -2.12875900   0.14603400
N    3.54257800  -2.94827800  -0.65149900
H    1.17223600  -0.54104900  -1.01876500
H    0.59423600   0.92563800  -0.13463800
H    0.33303500  -0.74339700   0.53483000
H    2.79297900   1.71498300   1.75710400
H    3.36835600   1.70232400   0.06711700
H    5.08759500  -0.03648500   0.62550900
H    4.64454700   0.09344100   2.36128000
H    2.78327200  -1.49748300   2.06513800