19

C    2.26065900  -0.95546100  -0.33167600
N    3.50762200  -0.23484200  -0.37816500
C    4.50473200  -0.61204800  -1.34374500
C    3.74583200   0.82081500   0.57881300
C    4.98077300   1.65526400   0.36184800
C    4.96183400   2.82272700  -0.57015000
N    4.82362100   3.00330200   0.85688200
H    1.65450800  -0.62286500   0.51823600
H    2.46423500  -2.03622600  -0.25736200
H    1.71171000  -0.78173200  -1.27378100
H    4.08515200  -1.31793100  -2.06897100
H    5.35599900  -1.08308100  -0.81976600
H    4.88809100   0.28867000  -1.84710000
H    3.76644900   0.34044000   1.57944500
H    2.85376700   1.47451200   0.59415900
H    5.93836700   1.14380200   0.51498200
H    4.06623400   3.03976000  -1.16286000
H    5.90599600   3.08783600  -1.05647300
H    5.66617100   3.36193300   1.30182600