17
Properties=species:S:1:pos:R:3 pbc="F F F"
N        1.45794952      -0.38885987      -0.39377984
C        2.79088902      -0.00423000       0.06901997
C        3.67705870      -1.06994963       0.65562975
C        4.02336836      -0.45904982      -0.66684979
N        4.98240805       0.66189975      -0.77142972
C        4.21395826       1.87271941      -0.42749983
C        3.03707886       1.43263948       0.45531985
H        1.15792966       0.20745991      -1.16401947
H        0.76891971      -0.27122989       0.34848988
H        3.31809878      -2.09356928       0.65165973
H        4.28274822      -0.82882971       1.51966941
H        3.90100861      -1.06575954      -1.55816936
H        5.72674799       0.53361982      -0.08559997
H        4.83740807       2.62542915       0.06493998
H        3.83198857       2.31120896      -1.35684955
H        3.30353880       1.49679935       1.51690948
H        2.16405916       2.07116914       0.28164989
