17
Properties=species:S:1:pos:R:3 pbc="F F F"
O        1.02466965       0.04890998      -0.07093998
C        2.44027901       0.02738999      -0.00762000
C        2.96914887       1.13140965       0.89071965
C        4.38082838       0.65743977       1.19769955
C        4.25005817      -0.85404968       1.38408947
C        2.96609902      -1.25553954       0.65137976
O        3.20498872      -2.26231909      -0.32556987
H        0.75416970      -0.78739971      -0.49323979
H        2.82588887       0.13536996      -1.02830958
H        2.37067914       1.21544957       1.80606937
H        2.95282888       2.10818911       0.39728987
H        5.03865814       0.86745965       0.34574988
H        4.80392790       1.14897954       2.07845926
H        5.13949823      -1.38297939       1.02716959
H        4.13946819      -1.07726967       2.45189905
H        2.23433900      -1.66411936       1.35729945
H        3.93964839      -1.96875930      -0.89022970
