11
Properties=species:S:1:pos:R:3 pbc="F F F"
O        1.76213932      -0.25974989       1.46046948
C        2.37200904      -0.05559998       0.19918992
C        2.91337895       1.33203948       0.18873994
C        4.20673847       1.63645947       0.00000000
C        4.67606831       2.96180892       0.00000000
N        5.06028795       4.04679823       0.00000000
H        1.38573945      -1.15591955       1.45271945
H        1.61726940      -0.17080994      -0.58447975
H        3.15296888      -0.80895972       0.05691998
H        2.18599916       2.12490940       0.35651988
H        4.94281816       0.85572970      -0.15597995
