18
Properties=species:S:1:pos:R:3 pbc="F F F"
C        2.81741881      -0.47519982      -1.69621933
C        2.47020888       0.02641999      -0.29744989
C        3.02738905       1.43281937       0.00000000
N        2.50009918       1.84607935       1.30910945
C        2.77142882       3.24415874       1.61640930
C        4.47138834       1.43281937       0.00000000
C        5.66154814       1.43281937       0.00000000
H        2.33170915      -1.43933940      -1.87847936
H        3.89555860      -0.61944979      -1.81610930
H        2.47396898       0.22687991      -2.46145916
H        2.83786893      -0.70067978       0.43803984
H        1.37578952       0.04221999      -0.20797993
H        2.64688897       2.11611915      -0.76960969
H        2.90771890       1.25333953       2.03153920
H        2.38816905       3.90753865       0.83501965
H        3.84137869       3.43552876       1.75623930
H        2.26727915       3.51159883       2.54908895
H        6.72711754       1.43291950       0.00020000
