17
Properties=species:S:1:pos:R:3 pbc="F F F"
C        1.01327968       0.01248999      -0.06357998
C        2.50383902       0.02846999      -0.03148999
C        3.34345889      -0.73459971      -1.04240954
C        2.73760891      -1.54492939      -2.13602924
N        3.22709870       0.71984977      -1.09523952
C        4.42757845       1.40983951      -0.63336974
H        0.61739975       0.77405971       0.61555976
H        0.64037979      -0.96144968       0.26751989
H        0.60936975       0.21534993      -1.06047964
H        2.87974906       0.08846997       0.98497963
H        4.27663851      -1.16719949      -0.69532979
H        1.86916935      -1.06038952      -2.59418893
H        2.42185903      -2.51888895      -1.75020933
H        3.47586870      -1.71740937      -2.92558885
H        4.18139839       2.45012903      -0.39771986
H        5.17782784       1.41923940      -1.43090951
H        4.88962841       0.96586961       0.25676993
