13
Properties=species:S:1:pos:R:3 pbc="F F F"
N        1.03480959      -0.00149000       0.25961989
C        2.46999907       0.00000000       0.00000000
C        2.72736883      -0.74457973      -1.28392947
C        3.33826876      -0.31347990      -2.39882898
C        2.95201898       1.36116946       0.00000000
C        3.34929872       2.48306894       0.00000000
H        0.85999972       0.53809983       1.10474956
H        0.73680973      -0.95152962       0.46294984
H        2.96514893      -0.55101979       0.80889970
H        2.37224913      -1.77401936      -1.28864956
H        3.72442865       0.69594973      -2.49575901
H        3.45242858      -0.97045964      -3.25539875
H        3.69832873       3.48947859      -0.00692000
