15
Properties=species:S:1:pos:R:3 pbc="F F F"
O        0.74588972       0.02961999      -0.01972999
C        2.16169930       0.04040999       0.19183993
C        2.98312879      -0.83567971      -0.70951974
C        2.47224903      -1.40566945      -1.98808920
O        2.60579896      -0.36146986      -2.96841884
C        2.52266908       0.89547968      -2.27673912
C        3.01148891       0.64056981      -0.89220965
H        0.32347989       0.81305969       0.37351984
H        2.51057887       0.14623994       1.21531963
H        3.86405873      -1.32970953      -0.32753989
H        3.06166887      -2.26525927      -2.31799936
H        1.42085946      -1.70263934      -1.92383933
H        3.14760900       1.62172937      -2.80425906
H        1.48537934       1.24513960      -2.29448915
H        3.91598868       1.17348957      -0.63910973
