17

C    1.10725700  -0.29642700   0.37810400
C    2.52166100  -0.24664600  -0.17931700
N    3.17179000   1.01269100   0.03786700
C    4.57989900   1.16927900   0.24248800
C    5.07949700   2.58385900  -0.06523000
C    6.51417100   2.67298100   0.19807700
N    7.64662200   2.70312800   0.41653600
H    0.66468700  -1.26832400   0.12452700
H    0.46826100   0.48433700  -0.06001600
H    1.10893600  -0.19666700   1.47207700
H    2.50668400  -0.38329600  -1.28559700
H    3.17885000  -1.04098000   0.21002200
H    2.57865300   1.85122200   0.06128500
H    5.10404800   0.39739000  -0.34774100
H    4.77637600   0.90851200   1.30640800
H    4.55931500   3.32947700   0.55810200
H    4.89626900   2.83793600  -1.12122300