14
Properties=species:S:1:pos:R:3 pbc="F F F"
N        3.05809903      -0.97665966      -0.51969981
C        2.36303902       0.09762996       0.17207994
C        3.25144887       1.29929948       0.18049993
C        3.38504887       2.16612911      -1.04656959
C        2.65615892       2.68500900       0.16192995
H        2.47730899      -1.81305933      -0.50490981
H        3.90893841      -1.21162951      -0.01184000
H        2.13291931      -0.20318992       1.19917965
H        1.41645956       0.30385989      -0.33822986
H        4.13639832       1.15000951       0.78954971
H        2.80486894       1.90303922      -1.92392921
H        4.36397839       2.57380915      -1.27023947
H        3.14070892       3.45306873       0.75390971
H        1.57999945       2.79158902       0.09339996
