15

C    0.96714700  -0.08876600   0.14674000
C    2.43685300   0.14689800  -0.06472000
C    3.19633000   1.18683200   0.78240400
C    4.03498300  -0.00464600   1.18941500
O    3.25886800  -0.91613300   0.56961400
C    5.56317000  -0.08207000   0.45997600
O    6.03425500   0.88753900   0.01986100
H    0.64785400  -1.01002000  -0.35850000
H    0.41693100   0.75470300  -0.29565400
H    0.71996000  -0.15197700   1.21520900
H    2.69807200   0.15890200  -1.13611700
H    2.60897300   1.57809500   1.62540500
H    3.69610700   2.01171200   0.26072800
H    4.34274300  -0.25619600   2.22376700
H    5.97853500  -1.11461400   0.48887200