14

C    0.92795800  -0.06439200  -0.06933800
C    2.41273900  -0.10914100  -0.02950000
C    3.05867700   1.60740000   0.11580600
O    2.48527200   2.13941700   1.18922900
C    4.47105000   1.47110500   0.06233600
C    5.67818800   1.33053300   0.01330000
H    0.60701500  -1.12372000  -0.11773100
H    0.53256800   0.43315900  -0.96500300
H    0.48736800   0.36955500   0.83674800
H    2.91784800  -0.42752800  -0.95035200
H    2.85949600  -0.54947400   0.87124900
H    2.56438100   1.93872700  -0.81350100
H    3.08515600   2.18748600   1.95172000
H    6.75204000   1.22255900  -0.03583200