17
Properties=species:S:1:pos:R:3 pbc="F F F"
C        5.22398806       4.05537844       2.30617905
C        4.98587799       3.33515859       0.99333960
O        6.23275757       3.20670867       0.31335989
C        6.07328796       2.57098913      -0.95447963
C        7.39252710       2.56684899      -1.64837933
C        8.27995682       1.35267949      -1.65564942
O        7.46371698       1.69536936      -2.78498888
H        4.28782845       4.18188858       2.85643888
H        5.66598797       5.04127836       2.12950921
H        5.92881775       3.49687886       2.93028879
H        4.28504848       3.91108871       0.37866986
H        4.56475830       2.34145927       1.18298948
H        5.35171795       3.13195872      -1.55895948
H        5.69680786       1.55309939      -0.80679971
H        7.83678722       3.54958868      -1.73480940
H        7.99160719       0.48825982      -1.07084954
H        9.34874630       1.49998951      -1.74866939
