15
Properties=species:S:1:pos:R:3 pbc="F F F"
C        0.90393966      -0.17849994      -0.00151000
C        2.37179899       0.15387994       0.17051993
C        3.50178862      -0.69056970      -0.56544983
O        4.36308861       0.52929986      -0.22974992
C        3.10173893       1.19172955      -0.78935969
C        2.96394897       0.68949974      -2.18193913
C        3.24091864      -0.61229980      -2.02685928
H        0.28343990       0.65167975       0.35067987
H        0.64424980      -1.06335962       0.58869982
H        0.62934977      -0.38097987      -1.04041970
H        2.57962894       0.32670987       1.23721957
H        3.86739850      -1.61630940      -0.12257995
H        3.04368877       2.26009917      -0.58374977
H        2.72463894       1.24095964      -3.07477880
H        3.28597879      -1.39807951      -2.76077914
