15
Properties=species:S:1:pos:R:3 pbc="F F F"
C        4.18612862      -0.95693964       1.02021968
O        4.84689808       0.22779992       0.59441978
C        3.98344851       1.06222963      -0.16990994
C        4.77538824       2.26374912      -0.57294983
C        4.96683788       2.63800907      -1.84544933
C        5.77379799       3.83089852      -2.16624928
O        5.94271755       4.19022846      -3.32476878
H        4.88213825      -1.54015934       1.62881935
H        3.88732862      -1.55952942       0.15696995
H        3.31107879      -0.71072972       1.62910938
H        3.13436890       1.37702954       0.44712982
H        3.60849857       0.51384979      -1.04162967
H        5.21059799       2.83240891       0.24618991
H        4.55907822       2.09559917      -2.69078898
H        6.20692778       4.37597799      -1.31051946
