15
Properties=species:S:1:pos:R:3 pbc="F F F"
C        1.08972967      -0.01927999      -0.15458994
N        2.50034904       0.05298998       0.19220993
C        3.07564878       1.19847953       0.14013994
N        4.39368820       1.34972954       0.46917984
C        4.72807837       2.74275899       0.61625975
C        3.47498870       3.38247871       0.09084997
C        2.49575901       2.51409888      -0.20337993
H        0.76676971      -1.06440961      -0.11342996
H        0.90241969       0.33814988      -1.17260957
H        0.47411981       0.54180980       0.55631977
H        4.78655815       0.65395975       1.08784962
H        5.59975815       3.00523877       0.01133000
H        4.89748859       3.00866866       1.66362929
H        3.38369870       4.45260811      -0.02714999
H        1.50567949       2.70399904      -0.57211983
