16

N    0.96685900  -0.01579800   0.09050100
C    2.32785300  -0.02400500  -0.16517400
C    3.01354300  -1.26023300  -0.63101900
C    4.09392500  -0.93157600  -1.36734000
C    4.22711700   0.54300500  -1.55720100
C    3.02506000   1.12930000  -0.85959700
C    2.65200800   2.41522900  -0.81518000
H    0.48618300   0.84884300   0.31968500
H    0.48596500  -0.87707600   0.33347100
H    2.84617200   0.11702800   0.86180200
H    2.70394600  -2.26640000  -0.34542700
H    4.79247400  -1.65206100  -1.79585400
H    5.18788600   0.93115300  -1.17571600
H    4.20876500   0.80310400  -2.63261800
H    3.20223400   3.17565300  -1.37440700
H    1.79159400   2.76171300  -0.23679100