14
Properties=species:S:1:pos:R:3 pbc="F F F"
O        0.85386968       0.04698998      -0.06806998
C        2.25870919      -0.15054995      -0.17284994
C        2.95747876       1.18521965       0.04674998
C        4.47852802       1.06981957       0.03104999
C        4.99854803       0.72857970      -1.30119956
C        5.42603827       0.45219982      -2.38972926
H        0.43155983      -0.80777967      -0.26025990
H        2.47517920      -0.55716980      -1.16529953
H        2.56137896      -0.87958968       0.58554977
H        2.63856888       1.59538937       1.01352966
H        2.61472893       1.90516925      -0.70772976
H        4.80620813       0.32284987       0.76267970
H        4.90860796       2.02885938       0.34434989
H        5.80534792       0.21161991      -3.35610867
