15

C    1.00448300   0.01275800   0.07726800
C    2.47493500   0.00997000  -0.02813100
C    3.23072600   1.20378800   0.04352400
O    4.50985500   1.21053500   0.07683900
C    5.21885200  -0.08878100   0.04447300
O    4.53358400  -0.97640500  -0.71230500
C    3.23946800  -1.25389400  -0.23780500
H    0.65537200  -0.81829300   0.71111700
H    0.57672200  -0.17292000  -0.92709300
H    0.60228800   0.96154600   0.45396600
H    2.76606200   2.19546300   0.09769600
H    6.18696900   0.13194200  -0.41505500
H    5.32091900  -0.36666600   1.10959700
H    3.25876500  -1.83148100   0.71216000
H    2.74071500  -1.88807800  -0.98652000