19

C    0.94991800   0.04602900   0.22371600
N    2.33816200  -0.01220200  -0.18499800
C    2.90439100  -1.26663200  -0.53127500
C    2.69539100  -1.48182500  -2.10698700
N    3.19869700  -0.35990000  -2.80282100
C    2.70273600   0.90703100  -2.42185000
C    2.91166400   1.10623400  -0.84404100
H    0.74286400   1.01041600   0.70366900
H    0.73673000  -0.76105900   0.93533400
H    0.27471400  -0.06547100  -0.64704600
H    2.42393600  -2.08829900   0.01449700
H    3.98641500  -1.27215700  -0.33556900
H    3.20360700  -2.40606000  -2.40889400
H    1.61188500  -1.59541300  -2.27242300
H    4.16963700  -0.40194800  -3.09918300
H    3.21628300   1.71838200  -2.95252700
H    1.61980500   0.98041700  -2.61194600
H    3.99384900   1.15579900  -0.65555800
H    2.43655900   2.04412000  -0.53021000