17
Properties=species:S:1:pos:R:3 pbc="F F F"
C        0.96436965       0.01823999      -0.08851997
C        2.47621894      -0.01603999       0.06821997
O        2.84460902      -1.20905948       0.78901970
C        3.37762880      -0.82761967       2.07039928
C        3.50890875       0.65093976       2.02382922
C        4.12206841       1.41919947       3.13449883
C        2.99663877       1.11282957       0.88361967
H        0.62361974      -0.85338968      -0.65764976
H        0.63520974       0.92444962      -0.60620975
H        0.46224985      -0.03068999       0.88481969
H        2.96320868      -0.04738998      -0.91195971
H        4.34097815      -1.32650948       2.20733905
H        2.68120885      -1.15083957       2.84989882
H        4.14462852       2.49185896       2.91600895
H        5.15129852       1.08858967       3.30556870
H        3.55270863       1.27468944       4.05798864
H        2.95181870       2.14915919       0.58320975
