11
Properties=species:S:1:pos:R:3 pbc="F F F"
C        0.93988967       0.01081000      -0.00721000
C        2.41598916       0.01742999      -0.00130000
C        3.27057886       1.09431958       0.00206000
O        4.55627871       0.66464972       0.00702000
N        4.57614803      -0.72069973       0.00691000
C        3.29383874      -1.08920956       0.00185000
H        0.53659976       1.02830958       0.00316000
H        0.55514979      -0.51483983       0.87264967
H        0.56236982      -0.49415979      -0.90214968
H        3.13852882       2.16572928       0.00166000
H        3.05642867      -2.14436913       0.00075000
