13
Properties=species:S:1:pos:R:3 pbc="F F F"
C        3.03756881      -1.16434956       0.53060979
O        2.31536913       0.03483999       0.28767991
C        3.09537888       1.13078964       0.15782994
C        2.55998898       2.37425900      -0.08035997
O        3.54814863       3.30428863      -0.16970994
C        4.72197819       2.64488912       0.01351999
C        4.49844837       1.30228949       0.21941991
H        2.31455922      -1.98117924       0.61833978
H        3.59444880      -1.10722959       1.47282946
H        3.70810866      -1.39869940      -0.30404991
H        1.55207932       2.74390888      -0.20543993
H        5.61106825       3.25921893      -0.03039999
H        5.26179838       0.55848974       0.39022985
