13

C    2.12483800  -0.77410500   1.42902200
C    2.55630000  -0.38963300   0.06845000
O    2.57000400  -0.80599400  -1.00565400
C    3.33903400   1.46678100   0.16155800
O    2.90278200   2.02454500   1.27889400
C    4.71069300   1.14690900   0.00110000
C    5.87968100   0.84674200  -0.13733600
H    1.43023400  -0.01444200   1.81435800
H    3.01032200  -0.81114900   2.08081600
H    1.64609900  -1.76173000   1.36955700
H    2.76463200   1.77611600  -0.72221800
H    3.57677800   2.03096600   1.97649500
H    6.92171800   0.59625300  -0.26892500