17
Properties=species:S:1:pos:R:3 pbc="F F F"
C        6.71493769      -0.21515992       0.89288968
N        6.11794758       1.10884953       0.75052971
N        4.87191820       1.12689960       0.22010991
C        4.42347860       2.32181907      -0.00162000
C        3.06011891       2.53080916      -0.61032975
C        2.18614912       3.23266888       0.38592985
C        1.63992941       4.43892813       0.18925993
H        7.73194695      -0.12285995       1.28468943
H        6.77190733      -0.72099972      -0.07588997
H        6.13308811      -0.83474964       1.58262932
H        6.14345789       1.57711947       1.66005933
H        5.01562834       3.22943878       0.22073993
H        2.61711907       1.56636941      -0.87756968
H        3.18659902       3.12092900      -1.52390945
H        1.98054922       2.70435905       1.31557953
H        1.80106938       5.00039816      -0.72717971
H        1.00268960       4.89176798       0.94437963
