12
Properties=species:S:1:pos:R:3 pbc="F F F"
C        0.95371962      -0.00797000       0.00839000
C        2.44730926      -0.00063000       0.01295999
C        3.17477870       1.12625957      -0.01210999
C        4.66853809       1.15736961      -0.00929000
H        0.58673978      -1.03802967      -0.04619998
H        0.56085980       0.53226978      -0.85860968
H        0.55994982       0.44017982       0.92580962
H        2.94308877      -0.96848965       0.03747999
H        2.67236900       2.09108925      -0.03370998
H        5.10343790       0.15274994       0.00228000
H        5.02833843       1.69576943       0.87242967
H        5.03156805       1.67595935      -0.90190965
