18
Properties=species:S:1:pos:R:3 pbc="F F F"
C        1.10036957       0.14491995       0.23539992
N        2.49331903      -0.08763997      -0.13025995
C        2.72668910      -1.48401940      -0.55272979
C        2.77583885      -1.48551941      -2.08724928
C        3.20744872      -0.09751996      -2.44665909
C        2.21084905       1.02153969      -2.51343918
C        2.96615887       0.77058971      -1.24046957
H        0.94071966       1.19990957       0.48367983
H        0.84274971      -0.43515983       1.12837958
H        0.40077984      -0.13128994      -0.56094980
H        1.99777925      -2.20071912      -0.15909994
H        3.70968866      -1.78392923      -0.16899994
H        3.47835875      -2.23750901      -2.45963907
H        1.78477943      -1.69550943      -2.50599909
H        4.15862846      -0.02553999      -2.95144892
H        2.47909904       1.90162933      -3.08790874
H        1.15768957       0.77841973      -2.56901908
H        3.73573852       1.48713934      -0.96827966
