19
Properties=species:S:1:pos:R:3 pbc="F F F"
C        0.97162968      -0.09816997       0.17979993
C        2.49388909      -0.02810999       0.00763000
C        2.87334871      -0.77115971      -1.28317952
C        3.02738905       1.43281937       0.00000000
C        2.54992890       2.24113917       1.21204948
C        4.47060871       1.45998943      -0.03861998
C        5.66013813       1.48237944      -0.07044997
H        0.66460973       0.25996989       1.16699958
H        0.61608982      -1.13071954       0.09231997
H        0.45923984       0.50087982      -0.58030981
H        2.94839883      -0.57151979       0.84773970
H        2.46792912      -0.26323989      -2.16488910
H        2.47995901      -1.79357934      -1.27242947
H        3.95865870      -0.84564966      -1.40145946
H        2.64229894       1.93547928      -0.89732963
H        2.80846882       1.74126935       2.15328932
H        1.46586955       2.39352918       1.19106948
H        3.01131868       3.23648882       1.22961962
H        6.72522783       1.50202942      -0.09897996
