11
Properties=species:S:1:pos:R:3 pbc="F F F"
N        2.52782917      -0.68659973       2.56311917
C        2.97621894      -0.41099983       1.52797949
C        3.54227877      -0.06873997       0.21381991
C        4.09195852       1.33089960       0.21940991
C        5.38174772       1.63645947       0.00000000
C        5.85107803       2.96180892       0.00000000
N        6.23529768       4.04679823       0.00000000
H        2.76396894      -0.13808995      -0.55395979
H        4.31812811      -0.79444969      -0.05120998
H        3.37289882       2.13075900       0.40436983
H        6.11606789       0.86032969      -0.18861994
