15
Properties=species:S:1:pos:R:3 pbc="F F F"
C        1.20342958      -0.23622991      -0.63457978
C        2.47462916      -0.03357999      -0.26823989
C        3.11510897       1.25523949      -0.16395994
C        4.41903830       1.40353954       0.14597994
C        4.79234791       2.85515904       0.19057994
C        3.49188876       3.51782870      -0.13626996
C        2.54972887       2.58488894      -0.33278987
H        0.80216974      -1.24330950      -0.68745977
H        0.53336978       0.57651979      -0.89181966
H        3.08660889      -0.90127963      -0.02889999
H        5.11886835       0.60398978       0.33922985
H        5.55657816       3.09018898      -0.55571979
H        5.14488792       3.14213896       1.18547952
H        3.34349871       4.58487797      -0.19890992
H        1.51699936       2.77853894      -0.57847977
