22

C    1.07945300   0.07428300  -0.66350800
C    2.58664100   0.22444500  -0.49138700
C    3.00907200   1.66151300  -0.19663000
C    4.52226100   1.80901400  -0.02649700
C    4.94549300   3.23066000   0.33049900
C    6.50582900   3.33418400   0.60687200
N    4.65223700   4.14836300  -0.69752200
H    0.81123700  -0.97046000  -0.87174300
H    0.70813700   0.68651800  -1.49978500
H    0.54017000   0.38217300   0.24527800
H    3.10498500  -0.12669600  -1.39978000
H    2.93436700  -0.42622800   0.32877500
H    2.50057200   2.01606700   0.71683600
H    2.66041200   2.32145900  -1.01418800
H    5.05334300   1.48851500  -0.94050100
H    4.88111500   1.15001900   0.77844600
H    4.45947300   3.60050900   1.25102300
H    7.06686000   2.97930800  -0.26694400
H    6.69091800   2.67401000   1.46485100
H    6.80109500   4.35910900   0.86334300
H    4.65406100   3.85780400  -1.68093400
H    4.52621600   5.14793400  -0.51441000