16
Properties=species:S:1:pos:R:3 pbc="F F F"
C        0.79674971       1.38842940      -0.62874979
C       -0.32285985       0.95375961       0.27654988
C       -1.39413941       0.00815000      -0.18699992
C       -0.79285973      -1.37842953       0.07361997
C        0.70894974      -1.19743955      -0.17413993
C        0.97928959       0.20728992       0.28443989
H        0.70377970       1.21486950      -1.69437933
H        1.32079947       2.30546927      -0.37902984
H       -0.58637977       1.54597938       1.14116955
H       -2.32929921       0.14461994       0.36280987
H       -1.59559941       0.14732994      -1.25502956
H       -0.95571965      -1.65036929       1.12477958
H       -1.23686957      -2.15882921      -0.55117977
H        1.29428959      -1.93223929       0.38497984
H        0.94083965      -1.30651951      -1.23931956
H        1.61566937       0.28403991       1.15450954
