15
Properties=species:S:1:pos:R:3 pbc="F F F"
C        0.88936967       0.06465998       0.06044998
C        2.39949918      -0.03216999       0.00644000
C        3.18759894       0.93845963       0.89447969
O        4.01435852      -0.14554994       1.39119947
C        3.05612874      -1.11743951       0.88283962
C        3.73840857      -2.18004918       0.18113995
C        4.29944801      -3.06846881      -0.40046984
H        0.43183985      -0.78161967      -0.46240982
H        0.54503983       0.98400968      -0.42373985
H        0.51824981       0.06551997       1.09054959
H        2.75809908      -0.02229999      -1.03161955
H        2.63362908       1.41375947       1.71047926
H        3.77558851       1.68851948       0.35888988
H        2.42808914      -1.48072946       1.70591927
H        4.80369854      -3.85527849      -0.91245967
