12
Properties=species:S:1:pos:R:3 pbc="F F F"
C        0.31531990      -1.42026949       0.09727997
C       -1.10217953      -0.95349967      -0.09113996
C       -1.24311960       0.52286983       0.06210998
N       -0.27504990       1.37938952       0.06803998
N        1.03867960       0.94518965      -0.08111997
C        1.30774951      -0.31903988      -0.06616998
H        0.55635977      -2.21507907      -0.61695975
H        0.45838982      -1.84338927       1.09791958
H       -1.76679945      -1.44286954       0.62869972
H       -1.47107935      -1.21514952      -1.08877957
H       -2.27175903       0.91339970       0.13956994
H        2.36600900      -0.61847973      -0.14351995
