15

N    1.80015500  -0.33232000  -1.12290200
C    2.81320600  -0.09009700  -0.13922300
C    3.15270400   1.35688600  -0.07698100
C    2.35100300   2.47339400  -0.49725800
C    3.05566100   3.61770100  -0.21211700
C    4.28436700   3.21392100   0.38008500
N    4.30823900   1.85493900   0.44082500
H    1.21183300  -1.12703000  -0.89503400
H    2.17718100  -0.46165400  -2.05753400
H    3.75228100  -0.67357000  -0.24583400
H    2.43077700  -0.35335700   0.86676500
H    1.36843900   2.36184500  -0.95095000
H    2.75579900   4.64909200  -0.38590900
H    5.11264800   3.81710200   0.75192900
H    5.07317000   1.29995800   0.81423800