15

O    1.23138000   0.11967700  -0.71382400
C    2.40097300  -0.05584700  -0.01243600
C    2.52132300  -1.34064200   0.85967700
C    3.21517300  -0.85768800   2.09195300
C    3.83394100  -1.65351200   3.05356600
C    3.17332900   0.56063000   2.14545200
C    2.63657500   1.03967500   0.96846300
H    1.28705700  -0.27646200  -1.58955100
H    3.30160900  -0.02807100  -0.67194400
H    3.01938500  -2.19563900   0.38141100
H    1.49127400  -1.64672900   1.11179600
H    3.89499500  -2.73872100   2.93649100
H    4.26941800  -1.20691000   3.95155400
H    3.52587900   1.16804300   2.98071700
H    2.41671300   2.08609800   0.74024900