8
Properties=species:S:1:pos:R:3 pbc="F F F"
O        0.94659966       0.04162998       0.00000000
C        2.16801906       0.01185000       0.00000000
C        2.93877888       1.22906947       0.00000000
C        3.57474875       2.24772930       0.00000000
C        4.32993841       3.47465873       0.00000000
O        3.76689839       4.55897856       0.00000000
H        2.74990892      -0.92312962       0.00000000
H        5.42546797       3.36238885       0.00000000
