17
Properties=species:S:1:pos:R:3 pbc="F F F"
C        1.54842937       2.10645914       0.22798993
O        2.94607902       2.31018901       0.40027985
C        3.70546865       1.62564945      -0.59872979
C        5.18714809       1.90724921      -0.36848986
C        6.05785799       1.03308964      -1.26356947
C        5.43551826       3.37971854      -0.62406975
O        6.21586752       3.81634855      -1.46662939
H        1.02088964       2.66701913       1.00442958
H        1.30145955       1.04557967       0.33182988
H        1.22497964       2.47588897      -0.75014973
H        3.39285874       1.96795928      -1.59272945
H        3.50853872       0.55050981      -0.51477981
H        5.44668770       1.72840929       0.68190974
H        5.83804750       1.20276952      -2.32353926
H        5.89641809      -0.02796999      -1.04808962
H        7.12014723       1.25067949      -1.10774958
H        4.87830830       4.07495832       0.02818999
