14
Properties=species:S:1:pos:R:3 pbc="F F F"
C        0.93268967      -0.13737994      -0.02638999
C        2.44332910       0.01779999       0.05576998
C        2.84883881       1.46344936       0.02581999
C        3.51072884       2.06297922       1.02575958
C        3.88650846       3.48760867       0.93182963
O        4.49307823       4.04718876       1.83782923
H        0.66063976      -1.19778955      -0.01851999
H        0.53747976       0.30540991      -0.94700962
H        0.43865982       0.34531987       0.82366967
H        2.90872884      -0.49547982      -0.79341972
H        2.80727887      -0.47422984       0.96545964
H        2.58500910       2.01800919      -0.87267965
H        3.79960871       1.55179942       1.93685937
H        3.59315848       4.01301861       0.00840000
