17
Properties=species:S:1:pos:R:3 pbc="F F F"
C        3.97129846      -0.29954988       2.25676894
C        3.27166891      -0.44719982       0.93181968
C        2.52105904      -1.53175938       0.67219979
C        3.41107893       0.59730977      -0.07505997
C        4.14485836       1.71465933       0.04896998
C        4.24229860       2.71216893      -0.99302959
C        4.98632812       3.81724858      -0.87197971
H        3.62700844       0.59979981       2.77829885
H        5.05600786      -0.23561992       2.11772919
H        3.77963877      -1.15111959       2.91852903
H        2.40163898      -2.32419896       1.40499949
H        2.00523925      -1.66627932      -0.27346990
H        2.86422873       0.43501985      -1.00380969
H        4.70672846       1.91132927       0.95838964
H        3.68344879       2.54821897      -1.91202927
H        5.56476784       4.02991867       0.02227999
H        5.03386784       4.54224825      -1.67806935
