17
Properties=species:S:1:pos:R:3 pbc="F F F"
C        0.81124967       0.24092992      -0.08020997
C        2.27505898       0.06112998       0.23337990
O        2.68255877      -1.04506958       0.61154979
C        3.20675898       1.28740954       0.08706997
C        2.62208891       2.72193885       0.21324992
C        3.93926859       3.12879896       0.89971966
C        4.09543848       1.65269935       1.30893958
H        0.70108974       0.74997973      -1.04100955
H        0.33303988       0.81822973       0.71412969
H        0.32654986      -0.73704970      -0.15207994
H        3.81167865       1.18574953      -0.82690966
H        1.74781930       2.80739903       0.86842972
H        2.40903902       3.23041868      -0.73077971
H        4.71050835       3.47782874       0.20410992
H        3.84751868       3.84369850       1.72073936
H        5.11721802       1.26413953       1.28524959
H        3.64605856       1.41260946       2.28011894
