17
Properties=species:S:1:pos:R:3 pbc="F F F"
C        2.47779918      -0.99996960      -0.42406985
O        2.18471909       0.31297988       0.03483999
C        3.32305861       1.18698955      -0.01092000
C        3.53052878       1.76075935      -1.42487943
C        2.95125890       3.13722873      -1.33853948
C        2.68091893       3.48597860      -0.07899997
C        3.03855896       2.40298915       0.88855970
H        1.55974936      -1.59187949      -0.37640986
H        3.22617888      -1.46989954       0.22125992
H        2.82979894      -0.98902959      -1.45913947
H        4.20706844       0.64623970       0.34802988
H        3.02034903       1.17978954      -2.19784927
H        4.59572840       1.83261943      -1.66838932
H        2.78993893       3.77058864      -2.20053935
H        2.27075911       4.44055843       0.22239992
H        3.93361855       2.70033884       1.44526947
H        2.22075915       2.21614933       1.59113932
