19
Properties=species:S:1:pos:R:3 pbc="F F F"
N        1.85917926      -0.13221996      -1.49860954
C        3.10081887       0.06299998      -0.73410976
C        2.99263883       1.25651944       0.25016990
N        1.75694942       1.16993952       1.03923965
C        4.15612841       1.30438948       1.19978964
C        5.30239773       2.25679898       0.95649964
C        4.36252832       2.49777889       2.10295916
H        1.99655926      -0.89142966      -2.16544914
H        1.67941940       0.70390970      -2.05551934
H        3.93823838       0.22420992      -1.42355955
H        3.30827880      -0.86228967      -0.18387993
H        2.94164872       2.18490911      -0.33406988
H        1.81252921       0.34333986       1.63235950
H        1.01837969       0.92911965       0.36918989
H        4.38864803       0.33258989       1.62415946
H        5.25025797       2.94159889       0.11717996
H        6.30600739       1.91785932       1.18874955
H        4.71916819       2.31060934       3.10867882
H        3.65678859       3.31806874       2.03029919
