14
Properties=species:S:1:pos:R:3 pbc="F F F"
C        0.99966967      -0.05387998       0.00312000
C        2.51999903       0.00000000       0.00000000
C        3.00201893       1.36116946       0.00000000
C        3.39929867       2.48306894       0.00000000
C        3.86862850       3.80841851       0.00000000
C        3.02976894       4.84977818       0.00000000
H        0.65758979      -1.09272957       0.00268000
H        0.58535975       0.44198984      -0.88045967
H        0.58908981       0.43999982       0.88953966
H        2.89553881      -0.53276980      -0.88083965
H        2.89921880      -0.53411978       0.87843966
H        4.94175816       3.97415853      -0.00000000
H        1.95246923       4.71471834       0.00001000
H        3.40949869       5.86583805       0.00000000
