17

C    2.55186300  -0.33652300   1.27578200
O    2.46428000   0.26225900  -0.01670400
C    2.73408800   1.54603600  -0.11534600
O    4.26600800   1.71097800  -0.08802000
C    4.89811400   2.77474600  -0.36610400
C    4.32772200   4.01902800  -0.72095600
C    5.14091600   5.20061100  -1.03253500
H    2.12809400  -1.34119600   1.18283400
H    1.96878400   0.24401200   2.00847800
H    3.60156700  -0.40843700   1.59546500
H    2.40118000   2.17670900   0.72976100
H    2.42155900   1.92958400  -1.09635000
H    5.99087100   2.66915000  -0.31070500
H    3.23737700   4.11460400  -0.76764600
H    6.22122200   5.02468100  -0.95678200
H    4.85308000   6.03542600  -0.36709300
H    4.89533900   5.55889800  -2.04972600