18
Properties=species:S:1:pos:R:3 pbc="F F F"
C        0.96720964      -0.12431996       0.01570999
C        2.49627900      -0.04622998      -0.02289999
N        2.96080875      -0.78322965      -1.21145952
C        3.02585888       1.41951942      -0.01781999
C        2.48669910       2.23589921       1.16191959
C        4.50784874       1.45069945       0.02520999
C        5.70822763       1.48079944       0.05757998
H        0.57384980       0.26294988       0.96071959
H        0.62259978      -1.16188955      -0.06491998
H        0.51636982       0.44559982      -0.80417967
H        2.88857913      -0.57066977       0.85772967
H        2.62161922      -0.32952985      -2.05814934
H        2.57448888      -1.72566938      -1.21016955
H        2.70049882       1.91653931      -0.94184965
H        2.70277905       1.74532926       2.11781931
H        1.40467942       2.38082933       1.08675957
H        2.94302893       3.23244882       1.19134951
H        6.77308750       1.49763942       0.08127997
