13
Properties=species:S:1:pos:R:3 pbc="F F F"
O        1.02623963       0.00187000      -0.00507000
C        2.43926907       0.08874997      -0.05709998
C        2.85025907       1.42364943       0.50714982
C        3.68715858       1.24111962       1.54383934
C        3.95273852      -0.17707993       1.82912922
O        4.48473835      -1.07507956       0.84120965
C        3.06257892      -0.93605965       0.86341965
H        0.78299969      -0.81811970      -0.46512982
H        2.78042889      -0.02599999      -1.09073961
H        2.51165891       2.37343931       0.12319995
H        4.12956858       2.04212928       2.12223911
H        3.96336865      -0.48096982       2.86832905
H        2.43745923      -1.73939943       1.21494949
