12
Properties=species:S:1:pos:R:3 pbc="F F F"
C        2.70391893      -1.65746939      -0.94016963
O        3.93921852      -1.04541957      -0.56848979
C        3.88362837       0.30914989      -0.52314979
O        2.91236877       1.00729966      -0.76049972
C        5.22004795       0.80656970      -0.13351995
C        5.45524788       2.11923909      -0.01148000
H        2.84097910      -2.74199915      -0.91120964
H        2.42736912      -1.36999953      -1.95944929
H        1.91196918      -1.39034951      -0.23309991
H        5.99533796       0.07196997       0.04690998
H        4.67665815       2.85588908      -0.19295992
H        6.43647766       2.48362899       0.27370989
