15

C    0.82136700   0.12647300  -0.06695100
N    2.22439200   0.22185600  -0.37947100
C    2.85326300  -0.78761000  -1.18434800
C    2.97675100   1.35390100   0.13512200
C    4.38229800   1.37316100  -0.22590600
C    5.55544100   1.42738600  -0.50312500
H    0.50281500   0.97244900   0.55241400
H    0.63324100  -0.82300800   0.46263900
H    0.24304500   0.10580600  -1.00638800
H    2.12409300  -1.55200200  -1.47251500
H    3.68890200  -1.23429000  -0.61749900
H    3.29997000  -0.31366200  -2.07594300
H    2.84864700   1.35258300   1.23618800
H    2.46250900   2.27017500  -0.21806000
H    6.60370300   1.48046100  -0.74789400