17
Properties=species:S:1:pos:R:3 pbc="F F F"
C        1.08927965       0.03242999       0.30356991
N        2.52318907      -0.00412000      -0.00294000
C        2.87273884      -1.28530943      -0.66717976
C        2.73491883      -1.01622963      -2.13589907
N        3.78182864      -0.36437988      -2.91914892
C        2.73340893       0.45689985      -2.31854916
C        2.87027884       1.07681966      -0.96003962
H        0.82977968       0.97730964       0.79295969
H        0.83145970      -0.76507974       1.00866961
H        0.45996982      -0.07837997      -0.58650976
H        2.24259925      -2.11859918      -0.33831990
H        3.90989852      -1.54274940      -0.42464983
H        1.99760926      -1.61314929      -2.65283895
H        4.64811850      -0.29666990      -2.37997913
H        1.99502921       0.90799963      -2.96547890
H        3.90687847       1.38778949      -0.78798974
H        2.23835921       1.96383917      -0.84450972
