17
Properties=species:S:1:pos:R:3 pbc="F F F"
C        0.27380988      -0.05056998       1.05868959
C        1.67425942      -0.58630979       0.90829968
O        1.93823934      -1.75510943       1.18570948
C        2.71509910       0.39682987       0.40742984
C        4.09969854      -0.23786990       0.29775989
C        5.11414814       0.75232971      -0.20172992
C        6.18367767       1.14600956       0.50048983
H        0.26320991       0.73926973       1.81348932
H       -0.39649984      -0.85421968       1.37561941
H       -0.07474998       0.33924988       0.09901996
H        2.74144888       1.24319959       1.10323954
H        2.38794899       0.76266974      -0.57268977
H        4.06794882      -1.08655965      -0.39649984
H        4.40019846      -0.64406973       1.27191949
H        4.96508789       1.14852953      -1.20415962
H        6.38274765       0.76744968       1.49793947
H        6.89060736       1.85645926       0.08376996
