11
Properties=species:S:1:pos:R:3 pbc="F F F"
C        1.40773940      -0.23515992      -0.59616977
O        2.79197907      -0.20494992      -0.26695991
N        3.21938872       1.13207948      -0.27997988
C        4.46927834       1.16445959       0.01684999
C        4.99687815       2.49876904       0.02808999
C        5.44339800       3.61394858       0.03880999
H        1.07289970      -1.27567947      -0.58658975
H        1.24710953       0.17818993      -1.59664941
H        0.83010966       0.32840985       0.14297995
H        5.11217785       0.30094987       0.24553990
H        5.82908773       4.60683823       0.04550998
