18
Properties=species:S:1:pos:R:3 pbc="F F F"
C        0.98358965       0.74777973      -1.57009935
C        2.46552896       0.67008978      -1.38889956
C        3.11846900       1.21198952      -0.34448987
C        4.59942818       1.19764960      -0.04854998
N        5.37686777       0.41894984      -1.00440967
C        5.22937822       2.56438923       0.03915999
C        4.67413855       3.76097846      -0.20574991
H        0.75101972       1.18618953      -2.54607892
H        0.50162983       1.36028945      -0.80048972
H        0.54919982      -0.25631991      -1.53170943
H        3.00426888       0.14281996      -2.16975927
H        2.52760911       1.72178936       0.41681984
H        4.72109842       0.72443968       0.93407965
H        5.25074816       0.83273971      -1.92571926
H        4.98752832      -0.51965982      -1.04809964
H        6.27526760       2.55315900       0.34646988
H        3.64301872       3.87093854      -0.52348983
H        5.25931835       4.66946840      -0.09916996
