15
Properties=species:S:1:pos:R:3 pbc="F F F"
N        3.23205900      -0.90691966      -2.41332889
C        3.37742877      -0.49467984      -1.33859956
C        3.57101870       0.03295999       0.01789999
C        4.34053850       1.34656942      -0.03354999
C        3.58045864       2.59947896      -0.53372985
C        4.29850864       3.32394886       0.61523974
N        4.41578865       2.01491928       1.29904950
H        4.12771845      -0.70021975       0.61363977
H        2.59613895       0.16579993       0.50244981
H        5.33229780       1.23508954      -0.49602982
H        2.49059916       2.55695891      -0.41921985
H        3.82447839       2.94091892      -1.54276943
H        5.26333809       3.76318860       0.33589986
H        3.70583868       4.07036829       1.15025961
H        5.29366827       1.88358927       1.80153930
