16
Properties=species:S:1:pos:R:3 pbc="F F F"
C        0.89510965       0.03405999       0.05046998
C        2.40708899      -0.02276999       0.00632000
C        3.16781878       0.95761967       0.90877968
O        4.02333832      -0.11154996       1.39387953
C        3.08843875      -1.09968948       0.87517971
C        3.81279850      -2.21199918       0.14725994
H        0.46356985      -0.81623971      -0.48756984
H        0.53066981       0.95104963      -0.42325982
H        0.51679981       0.01098000       1.07784963
H        2.77504897      -0.00131000      -1.02689958
H        2.60033894       1.40686941       1.73076940
H        3.73652864       1.72957945       0.38452986
H        2.46521926      -1.48661947       1.69307935
H        4.48425817      -1.82004941      -0.62322974
H        3.09652877      -2.88365889      -0.33564988
H        4.41055822      -2.80528903       0.84681970
