20

C    1.38245900  -0.52460500   0.99906100
C    2.24537200  -0.27348700  -0.22770000
C    2.05020700  -1.41804100  -1.31839400
N    2.57060200  -2.64139200  -0.93667800
C    1.93187400   1.04957200  -0.94948400
C    2.82896200   1.29415200  -2.11417700
C    2.42487500   1.30676600  -3.39661500
H    1.52577200   0.29298500   1.72085200
H    1.64834400  -1.46113100   1.50843000
H    0.31345200  -0.55566400   0.73885600
H    3.31378000  -0.28446100   0.04938100
H    2.63017100  -0.99206200  -2.18599300
H    0.99264900  -1.51335900  -1.59729000
H    3.55807600  -2.73892400  -0.69980900
H    1.99332700  -3.47504300  -0.83257900
H    2.07063600   1.84533100  -0.19637100
H    0.87200800   1.06944900  -1.25024200
H    3.89075500   1.45562800  -1.89087300
H    1.37062300   1.18473500  -3.66572800
H    3.13138100   1.47110400  -4.21363000