15
Properties=species:S:1:pos:R:3 pbc="F F F"
O        1.02811968       0.03709999      -0.02713999
C        2.44228911      -0.02241999       0.01013000
C        2.98320889       1.11968958       0.86217964
C        4.38860846       0.68132973       1.23807943
C        4.22895861      -0.81431973       1.30685961
O        5.06922817      -1.56719947       1.78465927
C        2.93500900      -1.28614950       0.70210969
H        0.70993972      -0.71078974      -0.56282979
H        2.83294916       0.04593998      -1.01223958
H        2.36625910       1.25557959       1.75996923
H        2.97539878       2.07340932       0.32496989
H        5.10913849       0.92690969       0.45268983
H        4.70207787       1.09372962       2.19894910
H        3.10731888      -2.09213924      -0.01521999
H        2.25415921      -1.62145936       1.48996937
