19
Properties=species:S:1:pos:R:3 pbc="F F F"
C        3.48322868      -1.03849959      -0.20495991
C        2.95425892      -0.02840999       0.80462968
C        3.24014878       1.43750954       0.42042983
C        2.53283906       2.37543917       1.40736938
C        4.74041843       1.77266943       0.30291989
N        5.48937798       1.53971946       1.53367937
H        3.17865872      -2.04904914       0.08299997
H        4.57482815      -1.02489960      -0.25585991
H        3.08523893      -0.83752966      -1.20495951
H        3.37102890      -0.25531989       1.79236937
H        1.86878932      -0.16905995       0.88672966
H        2.79482889       1.61789930      -0.56711984
H        2.85247898       2.19613910       2.43868899
H        1.44821942       2.22781897       1.36586952
H        2.73439908       3.42293859       1.16259956
H        4.85682821       2.82361889       0.01335999
H        5.19219828       1.18074954      -0.49935982
H        5.14747810       2.15763927       2.26822925
H        6.46641731       1.79137933       1.38598955
