13

C    1.02169900   0.04104600   0.15609300
C    2.37684500   0.01210400  -0.20307900
O    3.01120500   1.05548600  -0.56905700
C    4.43008300   0.78201600  -0.89930700
C    4.63299000  -0.70896300  -0.67502900
C    3.28395700  -1.21892700  -0.21665200
O    2.91493000  -2.30794200   0.08643700
H    0.54825800  -0.89763400   0.45890800
H    0.45436300   0.97561900   0.13413600
H    4.54613200   1.12467100  -1.93548600
H    5.00296400   1.44244500  -0.23582500
H    4.93336100  -1.24626100  -1.58755600
H    5.38642800  -0.93132900   0.09601000