12
Properties=species:S:1:pos:R:3 pbc="F F F"
C        1.02086961      -0.11291996       0.16344994
C        2.21289921      -0.00214000       0.06128998
C        3.64407873       0.13313995      -0.07184997
C        4.32496834       1.14785957       0.85331964
C        5.21254826      -0.02695999       1.25335956
O        4.32375813      -0.96461964       0.59794974
H       -0.03557999      -0.21952991       0.25385991
H        3.97830844       0.19671993      -1.11490953
H        3.71049857       1.54151940       1.66882944
H        4.83928823       1.96951926       0.34880987
H        6.20784760      -0.04251998       0.79888976
H        5.28720808      -0.21446992       2.32752895
