15
Properties=species:S:1:pos:R:3 pbc="F F F"
C        0.99999964       0.00000000       0.00000000
C        2.44399905       0.00000000       0.00000000
C        3.63415861       0.00000000       0.00000000
C        5.07815790       0.00000000       0.00000000
C        5.45552826       1.44227946       0.08695997
C        5.66096830       2.13008928       1.41288936
O        6.76774740       1.67549944       0.62035978
H        0.60607976       1.02090967       0.01191000
H        0.60593975      -0.52066982       0.87816972
H        0.60590976      -0.50007981      -0.89002967
H        5.47740841      -0.43516985      -0.92149961
H        5.47485828      -0.57446980       0.84382969
H        5.16122818       2.02781916      -0.77556974
H        5.43865824       1.58845937       2.32295918
H        5.48950815       3.19703889       1.46666944
