12
Properties=species:S:1:pos:R:3 pbc="F F F"
O        1.67657936      -0.21398991       1.43920946
C        2.35169911      -0.02835999       0.20640992
C        2.91274881       1.35148954       0.19805993
C        4.20673847       1.63645947       0.00000000
C        4.67606831       2.96180892       0.00000000
C        5.07334805       4.08370829       0.00000000
H        1.32556951      -1.12056959       1.43447948
H        1.63152945      -0.14711994      -0.61027974
H        3.12846875      -0.79476970       0.11041995
H        2.19907904       2.15357924       0.36917987
H        4.93017817       0.84336966      -0.16365995
H        5.42604828       5.08860826       0.00307000
