17

C    1.87277400  -0.26440300   1.41310500
C    2.28034400   0.24940800   0.03603200
N    2.86878600   1.60004500   0.10477500
C    2.13732300   2.71540100   0.11947200
C    0.75728600   2.77306600  -0.00228700
C    4.30847000   1.65264500   0.24851900
N    5.06539600   2.62863800   0.03730000
H    1.47059600  -1.28063300   1.30503300
H    1.09646000   0.36794900   1.86674600
H    2.73183300  -0.31122100   2.09707700
H    1.43288700   0.28053300  -0.66049100
H    3.04069900  -0.39911000  -0.41944600
H    2.69210200   3.64709400   0.26139400
H    0.12823500   1.89182900  -0.14008200
H    0.26661200   3.74705500   0.04557300
H    4.71622500   0.68371700   0.56543200
H    4.63808800   3.49455800  -0.30038500