17
Properties=species:S:1:pos:R:3 pbc="F F F"
C        1.08085954       0.19625993       0.00231000
C        2.57377911      -0.06925997       0.17046994
O        3.33465886       1.09021950      -0.20305993
C        3.54506874       1.20793951      -1.61124945
C        4.36718845       0.03249999      -2.13990903
C        3.84454870      -1.27274954      -1.62289941
C        3.00963902      -1.30644953      -0.57265979
H        0.79862970       1.12453961       0.51069981
H        0.48382983      -0.62355977       0.41573986
H        0.80458969       0.31598991      -1.05103958
H        2.77398872      -0.22531991       1.23666954
H        4.08406830       2.14400935      -1.79166925
H        2.58174896       1.28786945      -2.12814927
H        5.41047764       0.13161995      -1.81938922
H        4.35178804       0.03916999      -3.23483872
H        4.16304827      -2.18944907      -2.10803914
H        2.63784909      -2.26044893      -0.20981993
