15
Properties=species:S:1:pos:R:3 pbc="F F F"
C        0.99571961      -0.01079000      -0.17596994
C        2.48847914      -0.10216996       0.00173000
C        2.99973869      -1.49659944       0.24708989
C        3.24148870       1.01557970      -0.01392000
C        4.70683861       1.09055960       0.13748994
O        5.36368799       0.25743991      -0.69107974
O        5.25394821       1.90150928       0.86409968
H        0.65923977       1.01727962      -0.34718987
H        0.48172981      -0.38441986       0.71697974
H        0.68030977      -0.61058980      -1.03583968
H        2.40209889      -1.98678923       1.02303958
H        4.03705835      -1.51806939       0.59128982
H        2.92812896      -2.09041905      -0.66945976
H        2.78095889       1.99674928      -0.09443997
H        4.76661825      -0.23600991      -1.28365946
