14
Properties=species:S:1:pos:R:3 pbc="F F F"
C        0.99961960      -0.03525998       0.04520998
C        2.51021910       0.05464998       0.01390999
C        3.17062879       1.09826958       0.94194961
C        4.19546843      -0.01348000       1.22349954
N        3.15589881      -0.99571961       0.84335971
H        0.64945972      -0.90319967      -0.52402979
H        0.55477983       0.85814965      -0.40539986
H        0.61245978      -0.12151995       1.06695962
H        2.90074897       0.08913997      -1.01239967
H        2.57408905       1.38442945       1.81599927
H        3.55830860       1.99731922       0.45788983
H        5.06241798      -0.00598000       0.55043977
H        4.54438829      -0.08739997       2.25619912
H        3.49831867      -1.80147934       0.32358989
