15

C    2.75627800  -1.07489300  -0.05729900
O    2.68475500   0.06274600  -0.92529000
C    3.48670500   1.07755800  -0.67727500
C    3.51841400   2.10675000  -1.80651600
C    3.06283200   3.37213400  -1.19986900
C    2.70046900   3.12973800   0.14022600
O    2.89148400   1.93059600   0.51319800
H    2.14150300  -1.85294800  -0.51954800
H    2.35482000  -0.82175800   0.93372800
H    3.79693800  -1.42271400   0.02815000
H    4.46775700   0.81058300  -0.24677200
H    2.82981600   1.78823100  -2.61198500
H    4.51409400   2.20510200  -2.27134500
H    2.99351500   4.33910200  -1.70093000
H    2.28600200   3.83960700   0.86432100