12
Properties=species:S:1:pos:R:3 pbc="F F F"
C        0.89899963       0.02131999      -0.18481994
N        2.32887912       0.02872999       0.04268998
C        3.10962868       1.15858960       0.03414999
C        4.44678831       1.20939946       0.00000000
C        5.14978790       2.42703915       0.00000000
N        5.72528791       3.42383862       0.00000000
H        0.49045980      -0.96495968       0.05442998
H        0.67792976       0.24207991      -1.23368955
H        0.39743984       0.76079971       0.44785982
H        2.80729890      -0.84717971      -0.15777995
H        2.52695894       2.08051920       0.06862997
H        5.03167820       0.29850990      -0.02478999
