17
Properties=species:S:1:pos:R:3 pbc="F F F"
C        2.82858896      -0.92575967      -0.41286984
O        2.71289897       0.01871999       0.64646971
C        2.95625877       1.36981952       0.21605992
C        2.32021904       2.29474926       1.27234948
O        2.75584888       1.94834924       2.59130907
C        4.44319820       1.59195948       0.12390996
C        5.09058809       1.97018921      -0.98667961
H        2.59442902      -1.91483927      -0.01205000
H        3.84699845      -0.94790965      -0.80937970
H        2.11621904      -0.69695973      -1.21041954
H        2.46207905       1.55450940      -0.74642974
H        1.23173952       2.17700911       1.26075947
H        2.55844903       3.34656882       1.08909953
H        2.75880885       0.97018969       2.60335898
H        5.01088810       1.43005943       1.03820956
H        4.57141829       2.14452910      -1.92376924
H        6.16753769       2.11186910      -0.97614962
