17
Properties=species:S:1:pos:R:3 pbc="F F F"
O        1.13171959       0.04100998       0.48999980
C        2.51573920       0.02522999       0.13043995
C        2.83127880      -1.29997945      -0.58178979
C        2.52003908      -1.02559960      -2.02961922
C        3.52236891      -0.38413987      -2.94994903
C        2.50599909       0.46088982      -2.23197937
C        2.80936885       1.11670959      -0.91129965
H        0.92745966       0.93227965       0.82129973
H        3.09755874       0.15068994       1.04817963
H        2.22339916      -2.12655926      -0.19994992
H        3.89138865      -1.55482936      -0.47253981
H        1.70119929      -1.60656941      -2.42920923
H        4.55924845      -0.33362988      -2.63855910
H        3.39297867      -0.53195977      -4.01680851
H        1.67720938       0.89734966      -2.77215886
H        3.86510849       1.40848947      -0.87719965
H        2.18877912       2.00545931      -0.76464969
