15
Properties=species:S:1:pos:R:3 pbc="F F F"
C        0.98139960       0.05016998      -0.11006995
C        2.46885896       0.06725997       0.01995999
O        2.93722892       0.15864994       1.38033938
C        3.32250881      -0.72271973      -0.93534964
C        3.30949879       0.77830970      -1.01304960
N        4.50247860       1.52838933      -0.59267974
H        0.66304970       0.01507999      -1.15663958
H        0.54957980       0.94759965       0.34431988
H        0.56530976      -0.82577968       0.39876986
H        3.59039855      -0.53430980       1.57787931
H        2.83447886      -1.26536953      -1.73541939
H        4.21512842      -1.21090961      -0.56722975
H        2.79298878       1.21306956      -1.86489940
H        4.89089775       1.10752964       0.25308990
H        4.21719837       2.46085906      -0.29041988
