14

O    1.51860500  -0.69627700   0.64262400
C    2.73348000  -0.36289800   0.11586200
C    3.05812100   1.04227800   0.36844700
C    4.23974200   1.63289700  -0.06418500
C    4.56440600   3.03800100   0.18878000
O    5.77932300   3.37152900  -0.33780400
H    1.30620900  -1.62143000   0.47572000
H    2.81440400  -0.52493900  -0.99143900
H    3.58838200  -0.97368600   0.50954800
H    2.31739900   1.63139300   0.92634700
H    4.98043000   1.04393300  -0.62228700
H    4.48344800   3.19974000   1.29612400
H    3.70954400   3.64885900  -0.20485000
H    5.99159600   4.29668200  -0.17074800