15
Properties=species:S:1:pos:R:3 pbc="F F F"
C        1.14320958       0.64917976      -1.75976932
C        1.55192935       1.04191959      -0.54002976
C        0.45206985       1.23545957       0.45894980
O        0.66341978       1.52639937       1.63045943
C        2.96429873       1.22394955      -0.15775993
C        3.89406872       2.02625918      -1.03560960
C        3.43537855       2.59022903       0.27531990
H        1.86735928       0.45740983      -2.54594898
H        0.09957996       0.50260979      -2.01804924
H       -0.57528979       1.09367967       0.08222997
H        3.38671875       0.37578985       0.37363985
H        3.51312876       2.49020910      -1.93812931
H        4.92442846       1.69721925      -1.11221957
H        4.14654875       2.63830900       1.09233963
H        2.73318887       3.41654873       0.26054990
