14
Properties=species:S:1:pos:R:3 pbc="F F F"
N        0.93858963      -0.05980998      -0.18084992
C        2.38243914      -0.18649992       0.01146000
C        3.07126880       1.18159950      -0.04735998
C        4.55562830       1.06223953       0.16246994
C        5.47505808       1.42374945      -0.74142975
H        0.51825982      -0.98848963      -0.17906994
H        0.75176972       0.33418989      -1.10236955
H        2.79009891      -0.84972972      -0.76023972
H        2.56702900      -0.65967977       0.98273963
H        2.66392899       1.83721936       0.73240972
H        2.85760880       1.66271949      -1.01019967
H        4.88485813       0.66841978       1.12215960
H        5.19700813       1.83150935      -1.70833945
H        6.53465748       1.32175946      -0.52709979
