19

C    1.05101800   0.04054900  -0.17547900
C    2.54003800  -0.13414400   0.09159400
C    3.15919100   0.97705900   0.93610600
O    4.24267900   0.41355400   1.63399800
C    4.25911800  -0.99028400   1.52967400
C    5.52851700  -1.34368800   0.68784400
C    2.92095200  -1.37473600   0.91729700
H    0.67546800  -0.79588000  -0.77987200
H    0.85287300   0.96624000  -0.73382200
H    0.47516000   0.06859100   0.76216600
H    3.07675000  -0.15503000  -0.87196900
H    2.47668000   1.32801400   1.75057600
H    3.52624100   1.89688100   0.44873300
H    4.47091500  -1.34925800   2.55509800
H    5.40709800  -0.99557800  -0.34585000
H    5.60270200  -2.43930800   0.70989300
H    6.42651100  -0.90342000   1.13707900
H    2.98924000  -2.28893400   0.31432800
H    2.18297600  -1.55056400   1.71696100