15

C    0.90151700  -0.04145200  -0.00561600
C    2.39476300  -0.00867900   0.00990300
C    3.11861400   1.16741000  -0.09493500
C    4.59541300   1.20254300  -0.07982300
O    5.22525200  -0.07289800   0.05157000
C    4.53600700  -1.15943800   0.14814700
C    3.14660000  -1.20367400   0.13503200
H    0.54573500  -0.66620400  -0.83937000
H    0.46983600   0.96128700  -0.10804400
H    0.52367700  -0.49565100   0.92334900
H    2.61164500   2.13158600  -0.19467900
H    4.99792700   1.65529600  -1.00495900
H    4.97591100   1.82531800   0.75098600
H    5.15868200  -2.05461300   0.24263900
H    2.65957200  -2.17638100   0.22312200