16

C    0.62466700  -0.68064000  -0.44354600
C    2.02571700  -0.21061700  -0.37259500
N    2.55677500   0.52521300  -1.28340200
C    4.27011100   1.36479000   1.37511400
N    4.15569400   0.10006200   0.78957300
C    2.89800300  -0.57710500   0.80373200
H    0.04209900  -0.14136900   0.32201000
H    0.57238200  -1.74836300  -0.18460400
H    0.16523400  -0.51230500  -1.42530700
H    3.52995400   0.82123700  -1.12951800
H    2.05725700   0.82314100  -2.11889900
H    3.39908800   1.78890900   1.87862700
H    5.27108000   1.74846000   1.56258100
H    4.97687700  -0.49461500   0.82972600
H    3.03104400  -1.67161000   0.75919700
H    2.30665400  -0.39000000   1.72207100