19
Properties=species:S:1:pos:R:3 pbc="F F F"
C        1.14978957      -0.21373992      -0.53858978
C        2.66797900      -0.17632994      -0.43375984
N        3.12416887       1.21212947      -0.37798986
C        4.56931829       1.34028959      -0.14881995
C        5.39481831       0.82121968      -1.32798958
C        4.88616848       2.81989908       0.08648997
H        0.80296969      -1.24938953      -0.60738981
H        0.80189973       0.31815988      -1.43010950
H        0.67998976       0.24159992       0.33908987
H        3.08492875      -0.68712974      -1.30810952
H        2.97745895      -0.72253972       0.46503982
H        2.62230897       1.69639933       0.36681986
H        4.85100794       0.79006970       0.75768971
H        5.08657789       1.28991950      -2.26881909
H        5.29977798      -0.26312989      -1.43934953
H        6.45854712       1.03706968      -1.17992961
H        4.61896801       3.43131876      -0.78305972
H        5.95473766       2.96123886       0.28079990
H        4.34025812       3.20737886       0.95404959
