12
Properties=species:S:1:pos:R:3 pbc="F F F"
C        0.96703964      -0.00129000       0.05271998
C        2.45777917      -0.00823000      -0.24537991
O        2.79052901      -1.20411956      -0.99316961
C        3.38024879      -0.65290976      -2.10433936
C        3.38893890       0.66352975      -2.09052920
O        2.80660892       1.19863963      -0.96777964
H        0.68814975       0.88706964       0.62763977
H        0.67505974      -0.89964962       0.60513973
H        0.38757983       0.01464000      -0.87713969
H        3.03036880      -0.02187999       0.69045979
H        3.74911880      -1.33972955      -2.84420896
H        3.76722860       1.36042953      -2.81602907
