15

C    2.08539900   0.00365400  -0.83011100
C    1.89554600  -0.07224000   0.64802400
C    0.44034600  -0.00258600   0.45384600
C   -0.45813600   1.20088800   0.34885400
O   -1.57835800   0.65287800  -0.28662200
C   -1.67428300  -0.65563800   0.10431600
O   -0.26524100  -1.06114700   0.34020500
H    2.21991300   0.96488000  -1.33227700
H    2.06394900  -0.91008500  -1.42895800
H    2.21038600  -1.02477600   1.09298700
H    2.28961600   0.79832000   1.18816300
H   -0.66766600   1.56076700   1.37937100
H   -0.04997100   2.03361400  -0.23790800
H   -2.08503500  -1.28844800  -0.69049000
H   -2.17881600  -0.81587300   1.07294100