15

C    2.91773500  -0.90208900   0.51526400
C    2.54517900   0.44636300   0.70890100
O    3.25706600   1.45919900   0.43373400
C    4.60785200   1.40973700  -0.14173200
C    5.08705900   2.83926300  -0.31357100
C    6.43123800   2.82237200  -0.88555700
C    7.54064500   2.77673000  -1.35844600
H    2.20945200  -1.68605500   0.79474400
H    3.88546400  -1.19248500   0.09769000
H    1.56556500   0.70403400   1.13158400
H    4.53470100   0.88077100  -1.10364100
H    5.24067200   0.84402100   0.55826200
H    5.09124600   3.35079400   0.66192300
H    4.39598900   3.38741000  -0.97329600
H    8.53058100   2.75659700  -1.77998800