15
Properties=species:S:1:pos:R:3 pbc="F F F"
C        1.24452960      -0.29437989      -0.13066995
C        2.75533915      -0.17594993      -0.00131000
N        3.15264869       1.22546947      -0.10320996
C        4.59932804       1.37308943       0.02615999
C        4.95676804       2.79575896      -0.04075998
C        5.25158787       3.95903873      -0.09553996
H        0.94216967      -1.34457958      -0.06585998
H        0.89726967       0.09738997      -1.09275961
H        0.73292971       0.25319991       0.66812980
H        3.22654867      -0.76290971      -0.79790968
H        3.06623888      -0.59667981       0.96192968
H        2.70046902       1.76830935       0.63121974
H        5.10794830       0.83388972      -0.78117973
H        4.94505835       0.95753968       0.97986966
H        5.50808811       4.99193811      -0.15082994
