17
Properties=species:S:1:pos:R:3 pbc="F F F"
C        1.14933968       4.18272877      -0.50869983
O        2.16523910       3.26309872      -0.88465965
C        3.15257883       3.12878871       0.13369994
C        4.16802835       2.14556909      -0.35219988
C        5.47736788       2.41904902      -0.44611984
O        6.49877739       1.61474943      -0.86791968
C        6.15806770       0.29561988      -1.27858949
H        0.43433985       4.26114845      -1.33176947
H        1.57629943       5.17262793      -0.32175988
H        0.62125975       3.82573867       0.38046986
H        2.68679905       2.74620891       1.04903960
H        3.60395861       4.10531855       0.34439987
H        3.77278852       1.17539954      -0.63231975
H        5.88870764       3.38705873      -0.17693993
H        7.07777739      -0.20800993      -1.59095943
H        5.47596788       0.31454986      -2.13478899
H        5.72727776      -0.27299991      -0.44783983
