19
Properties=species:S:1:pos:R:3 pbc="F F F"
N        2.29428911      -0.03299999       3.47533870
C        3.21327901      -0.18824993       2.34496927
C        3.81022859       1.16329956       1.90646935
N        4.69197798       1.00151968       0.74175972
C        5.35535812       2.29503918       0.41870984
C        6.65040731       1.49597943       0.18741992
C        6.02154779       0.47075984       1.14903963
H        1.91257930      -0.94723964       3.71684861
H        1.49837947       0.53441983       3.18416858
H        2.67480898      -0.65104973       1.50954950
H        4.01345825      -0.87495965       2.64320898
H        4.32201815       1.63357937       2.75660896
H        2.98709893       1.83081937       1.62371933
H        5.42711830       3.01761889       1.24193954
H        4.95808840       2.80395889      -0.46425983
H        6.77570772       1.13073957      -0.83856970
H        7.57704687       1.96738923       0.52228981
H        6.19333744      -0.57742983       0.88713968
H        6.30222750       0.62470973       2.19861913
