19
Properties=species:S:1:pos:R:3 pbc="F F F"
C        2.19423914      -0.48406982      -1.42272949
N        2.30276895       0.06098998      -0.07538997
C        3.20065880       1.22407949      -0.08891997
C        2.43162918       2.51349902      -0.45632982
N        3.11234879       3.19722891       0.67897975
C        3.26069880       1.85918939       1.32852948
C        4.57056856       1.72166932       2.08172917
H        1.50430942      -1.33412945      -1.41713941
H        3.16295862      -0.83934969      -1.79016936
H        1.79605937       0.25562990      -2.12551928
H        2.61091900      -0.67888975       0.55465984
H        4.17154837       1.09260964      -0.58094978
H        1.34099948       2.48015928      -0.33954987
H        2.66182899       2.93378901      -1.44037950
H        3.99916840       3.62368870       0.41048986
H        2.40539908       1.62375939       1.97839928
H        5.43288803       1.98676932       1.46003938
H        4.70812845       0.68899971       2.41934919
H        4.57924795       2.36512923       2.96758890
