16
Properties=species:S:1:pos:R:3 pbc="F F F"
C        2.92799902      -1.12027955      -0.45277983
N        2.36896920       0.08268997       0.14914995
C        3.32971859       1.19229949       0.16804995
C        3.43141866       2.10706925      -1.01938963
C        2.80719900       2.60828900       0.24816991
N        3.50660872       3.61010861       1.05370963
H        2.17125916      -1.91062927      -0.46405983
H        3.79156876      -1.48419952       0.11334995
H        3.23322868      -0.93840969      -1.48831940
H        2.05445910      -0.13017996       1.09578967
H        4.25515842       0.98312968       0.70079976
H        2.77436876       1.93069923      -1.86331928
H        4.41170835       2.47325921      -1.29742956
H        1.72658944       2.73768902       0.22443992
H        4.51312828       3.45388865       1.05559969
H        3.20851898       3.55245876       2.02689910
