15
Properties=species:S:1:pos:R:3 pbc="F F F"
N        3.38186884      -1.12874949      -2.30728912
C        3.49101853      -0.62843978      -1.26225948
C        3.59106874      -0.00452000       0.07362997
N        4.43006849       1.20470953       0.07453997
C        3.70034862       2.36347914      -0.50979978
C        4.28881836       3.21665883       0.63010979
C        4.36650801       1.88243926       1.39627945
H        4.04181862      -0.73545969       0.75644970
H        2.57939911       0.19249992       0.45248982
H        2.60460901       2.30398917      -0.48991981
H        4.02211857       2.64687896      -1.51607943
H        5.26492834       3.66001844       0.40084985
H        3.63198853       3.98049831       1.05248964
H        5.25654840       1.75405931       2.01890922
H        3.47607851       1.67267931       2.00268936
