9
Properties=species:S:1:pos:R:3 pbc="F F F"
C        0.99999964       0.00000000       0.00000000
C        2.44399905       0.00000000       0.00000000
C        3.63415861       0.00000000       0.00000000
C        5.07955790      -0.00000000      -0.00000000
C        6.37612724      -0.00000000      -0.00000000
H        0.47241983       1.23066950       0.02070999
H        0.48494980      -0.61395973       1.07160962
H        0.48690981      -0.60058981      -1.09183967
H        7.51128721      -0.00000000      -0.00000000
