12

C    3.13480600  -1.03796000  -0.07582000
C    2.51321200   0.13909800  -0.09970900
C    3.12939300   1.47721000  -0.03795100
C    2.45809300   2.65475600  -0.06481500
C    4.59493900   1.53870800   0.06107000
O    5.30211900   2.51279500   0.12326200
H    2.56887900  -1.97064400  -0.12806400
H    4.22366100  -1.16151500  -0.00450200
H    1.42063300   0.17045800  -0.17267000
H    1.36659900   2.65000700  -0.13793900
H    2.95416200   3.62683900  -0.01672400
H    5.15771800   0.56179400   0.08381300