13
Properties=species:S:1:pos:R:3 pbc="F F F"
O        0.90680969      -0.15132995       0.21360992
C        2.12691903      -0.10281996       0.08862997
C        2.82833886       1.21953952      -0.12878996
C        4.33772850       1.24891949       0.02828999
C        4.97989845      -0.08602997      -0.04168998
C        4.25874853      -1.20301962      -0.03068999
O        2.86805892      -1.24579954       0.06082998
H        2.39275908       1.93668926       0.57974982
H        2.55995893       1.55412948      -1.13756967
H        4.60251808       1.71483934       0.98383963
H        4.75987816       1.89124930      -0.75261974
H        6.06483793      -0.13951994      -0.08457997
H        4.66543865      -2.20564938      -0.06207998
