15
Properties=species:S:1:pos:R:3 pbc="F F F"
C        2.58379889      -0.34652987       1.55124950
C        2.60946918       0.05550998       0.08431997
C        3.08137870       1.45572948      -0.10293996
C        4.17976856       1.89102924      -0.69214976
O        4.29476833       3.25863862      -0.70431978
C        3.07871890       3.63441873      -0.02258999
O        2.28433919       2.49171901       0.36171985
H        2.24383903      -1.38227952       1.65263939
H        1.90243936       0.28894988       2.12703919
H        3.58042860      -0.27222988       1.99959922
H        1.60486937      -0.04776998      -0.34155989
H        3.25798869      -0.63812971      -0.46412984
H        4.97941828       1.34108961      -1.15530956
H        2.48372912       4.27067852      -0.68702978
H        3.33948874       4.20214844       0.87748969
