14
Properties=species:S:1:pos:R:3 pbc="F F F"
C        0.98515964      -0.20559992       0.00482000
C        2.47031903       0.10191996      -0.05420998
C        2.75691891       1.59025931      -0.05837998
O        1.87311935       2.44996905      -0.04482998
C        4.22609854       1.99336922      -0.10446996
O        4.39292812       3.39850879       0.00878000
H        0.81952965      -1.28737950       0.00924000
H        0.46133983       0.21713991      -0.85895967
H        0.53234982       0.21384992       0.90935969
H        2.89912891      -0.33051988      -0.96415967
H        2.97018909      -0.34021989       0.81386971
H        4.65296841       1.66871941      -1.05708957
H        4.75806808       1.51709950       0.72325975
H        3.50339890       3.78969860      -0.11589996
