15
Properties=species:S:1:pos:R:3 pbc="F F F"
N        0.97441959       0.08141997       0.06447998
C        2.43488908       0.01794999      -0.07146998
C        3.10639882       0.99995965       0.91133964
N        4.07461834      -0.07559997       1.26026952
C        3.04142904      -1.07588971       0.85365969
C        3.65814877      -2.20040917       0.18445992
C        4.16822815      -3.13902879      -0.36532986
H        0.49495983      -0.70309973      -0.37661988
H        0.56382978       0.92309970      -0.33729988
H        2.81499887       0.05669998      -1.09841955
H        2.50161886       1.32021952       1.76906931
H        3.55864882       1.88642931       0.45653984
H        4.89525843      -0.08952997       0.65481973
H        2.40478921      -1.37504947       1.69747937
H        4.62062836      -3.97557855      -0.84607965
