14
Properties=species:S:1:pos:R:3 pbc="F F F"
C        1.45610952      -0.65042973       0.41475987
C        2.40450907      -0.12400996      -0.37014988
C        3.14875889       1.14322960      -0.05428998
C        4.65133810       0.89896965       0.03937998
C        5.41594791       2.17135930       0.30688989
O        4.90421820       3.27441883       0.46264985
H        0.93895966      -1.56119943       0.12855996
H        1.16489947      -0.18365993       1.35074961
H        2.64696908      -0.62111980      -1.30758953
H        2.78575897       1.58326936       0.88285965
H        2.93761873       1.87451935      -0.84384966
H        5.03517818       0.47733980      -0.89603966
H        4.88157845       0.19794993       0.84938967
H        6.51199770       2.05272913       0.36115986
