15
Properties=species:S:1:pos:R:3 pbc="F F F"
C        0.86868966      -0.05647998      -0.00335000
C        2.21075916      -0.01221000      -0.01406999
C        2.95338869       1.31335950      -0.04021998
C        4.45545864       1.18790960      -0.01696999
C        5.08621788       0.00494000       0.00596000
C        4.33483839      -1.22615945       0.00884000
C        2.99450898      -1.23806953       0.00068000
H        0.27848992       0.85477966      -0.01338000
H        0.32269990      -0.99440962       0.01666999
H        2.64828897       1.91447926       0.82481968
H        2.67231894       1.86494935      -0.94595963
H        5.03180838       2.10755920      -0.02008999
H        6.17004776      -0.05401998       0.02233999
H        4.89416838      -2.15700912       0.02037999
H        2.46921921      -2.18885922       0.00658000
