15
Properties=species:S:1:pos:R:3 pbc="F F F"
C        0.93154967      -0.05397998      -0.07223997
C        2.45202899       0.02584999       0.01772999
C        3.08640885      -0.72712976      -1.08377957
C        3.60198855      -1.34604955      -1.97462928
C        2.89270902       1.49411941       0.00718000
N        2.73926902       2.25893903      -1.11248958
N        3.41645885       2.06074905       1.04881966
H        0.46326983       0.51646978       0.73739970
H        0.58866978      -1.09209955       0.00076000
H        0.55901980       0.35151988      -1.02023959
H        2.76486897      -0.42026982       0.96969962
H        4.06110859      -1.90051937      -2.76119900
H        2.81157899       1.77715933      -2.00127912
H        3.28795886       3.11141872      -1.06530964
H        3.48071885       1.40090942       1.83055937
