18
Properties=species:S:1:pos:R:3 pbc="F F F"
C        1.17014956       0.20339993       0.14992994
C        2.66077900      -0.03059999      -0.09064997
C        2.87615895      -0.78632969      -1.40101945
C        3.40017867       1.28290951      -0.11533996
C        3.84198856       1.92915928       1.17308950
C        4.86358833       1.33663940       0.24338990
H        1.00598955       0.72405970       1.10012960
H        0.62584978      -0.74633974       0.18720992
H        0.72924972       0.81838971      -0.64329976
H        3.04249883      -0.65400976       0.72720975
H        2.50615907      -0.21236992      -2.25847912
H        2.35697913      -1.75056934      -1.38655949
H        3.94171858      -0.97912961      -1.56862938
H        3.05762887       1.93872917      -0.90998966
H        3.64829874       1.41506946       2.10761929
H        3.78454852       3.00967884       1.24324954
H        5.49722767       2.01602936      -0.31543988
H        5.35895777       0.42244986       0.55091977
