16
Properties=species:S:1:pos:R:3 pbc="F F F"
N        1.04177964       0.03091999       0.14446995
C        2.49424911      -0.02802999      -0.03082999
C        2.90901875      -1.25451946      -0.87542969
C        3.38389874      -0.66882974      -2.16971922
C        3.43371868       0.66697979      -2.12270927
C        3.00070906       1.14985955      -0.83304971
C        3.08136892       2.42354918      -0.43131983
H        0.80704969       0.86628968       0.67551976
H        0.73486972      -0.76622975       0.69617975
H        2.97627878      -0.06916998       0.95276964
H        2.08447933      -1.95757926      -1.03837955
H        3.72630882      -1.80071926      -0.38917986
H        3.66381860      -1.26400959      -3.02718878
H        3.76107860       1.30587947      -2.93031883
H        2.75478888       2.71805882       0.56037980
H        3.47457886       3.19990897      -1.07996964
