17
Properties=species:S:1:pos:R:3 pbc="F F F"
C        2.44859910       0.85527962       1.96464932
O        2.47484922       0.74917972       0.54900980
C        2.94757891       1.95076931      -0.06359997
O        4.31511831       2.19588900       0.25454989
C        4.92168808       3.31373882      -0.27389991
C        6.35484791       3.44694877       0.15515995
C        4.34990835       4.21709824      -1.08581960
H        2.03629923      -0.07303997       2.37021923
H        1.80744934       1.68492937       2.27879906
H        3.45860863       0.98619962       2.36481905
H        2.31371927       2.78801894       0.25460991
H        2.84327888       1.80982935      -1.14516962
H        6.41861725       3.49357891       1.24696946
H        6.82721758       4.34931850      -0.24711992
H        6.93259764       2.58278918      -0.18861994
H        3.32184863       4.15564823      -1.42159951
H        4.91667795       5.06880808      -1.45303953
