12
Properties=species:S:1:pos:R:3 pbc="F F F"
C        1.00094962      -0.05414998       0.00328000
C        2.51999903       0.00000000       0.00000000
C        3.00201893       1.36116946       0.00000000
C        3.39929867       2.48306894       0.00000000
C        3.91083860       3.92751837       0.00000000
C        4.31136847       5.05758810       0.00000000
H        0.65751976      -1.09353960       0.00182000
H        0.58477980       0.44267985      -0.88004971
H        0.58884978       0.43882984       0.89066970
H        2.89542890      -0.53267980      -0.88095963
H        2.89935875      -0.53425980       0.87830967
H        4.66743851       6.06173754       0.00000000
