14

C    0.91109200  -0.01767100   0.14559300
C    2.41708700   0.02360900  -0.03887700
C    3.18312400   1.07440700   0.78076400
C    4.08133300  -0.02679900   1.47693300
O    4.96910500  -0.05033000   2.22575100
C    3.22740300  -1.07959500   0.66052300
H    0.48470300  -0.88547100  -0.37640600
H    0.44835500   0.88506700  -0.27667100
H    0.63348300  -0.08326300   1.20897400
H    2.68213100   0.08843100  -1.10225000
H    2.63121200   1.56886800   1.59925200
H    3.86838200   1.76298500   0.25936000
H    3.93908200  -1.67731500   0.06737600
H    2.69804300  -1.68415300   1.41769600