15
Properties=species:S:1:pos:R:3 pbc="F F F"
C        1.18734956       0.02875999       0.01648999
N        2.63951898      -0.18196994       0.11060996
C        2.91785884      -1.59926939      -0.17289993
N        3.36681867       0.69846970      -0.63568974
C        4.40676832       1.13308966      -0.01259000
C        5.17295790       2.05498910      -0.80195969
C        5.81820774       2.82767892      -1.45901942
H        0.94069964       1.06092954       0.28929991
H        0.64950973      -0.62236977       0.71426976
H        0.81626970      -0.15292995      -0.99848962
H        2.37930918      -2.25169921       0.52315980
H        3.98551846      -1.80808938      -0.04294998
H        2.64135909      -1.86765933      -1.19871962
H        4.72774839       0.86862969       1.00752962
H        6.38119793       3.51138854      -2.04983926
