21
Properties=species:S:1:pos:R:3 pbc="F F F"
C        0.92270964       0.13805994      -0.26999992
C        2.41097903       0.11173996      -0.00438000
C        2.73269892      -0.00160000       1.46825945
C        3.29159880      -0.63291979      -0.98500967
C        3.36869884       0.87802964      -0.93759966
C        2.81030893       1.65569937      -2.10780931
C        4.62467861       1.50425947      -0.37482986
H        0.67632973      -0.00045000      -1.32664955
H        0.49824980       1.09134960       0.06079998
H        0.42240986      -0.66745979       0.27856991
H        3.78720856      -0.22049990       1.65912938
H        2.15432906      -0.81274974       1.92419922
H        2.47656894       0.93089968       1.98180926
H        2.82831907      -1.10178959      -1.84734929
H        4.12679863      -1.20830953      -0.59852976
H        2.02682924       1.11399961      -2.64496899
H        3.60077882       1.87119937      -2.83490896
H        2.39526916       2.60797906      -1.76230931
H        5.15443850       0.84572965       0.31928989
H        4.37932825       2.43285918       0.15038994
H        5.32677794       1.74287939      -1.18109953
