14
Properties=species:S:1:pos:R:3 pbc="F F F"
C        1.06167960       0.21000992       0.85290968
C        1.96850920       0.32685989      -0.12508994
C        3.09879875       1.28680956      -0.04336998
C        2.77271891       2.73027897      -0.44993982
C        3.47594857       3.10758901       0.85016972
O        3.49884868       1.72688925       1.28475952
H        0.24744992      -0.50285983       0.77409971
H        1.11518967       0.80995971       1.75718939
H        1.89821935      -0.29282990      -1.01361954
H        3.97560859       0.88496965      -0.56841975
H        1.71188939       2.99749875      -0.47571981
H        3.26252866       3.07994890      -1.36223948
H        4.48924828       3.50518847       0.74014974
H        2.89690900       3.73881865       1.52923954
