18

N    2.81140900  -0.72156800  -0.90724200
C    2.45812800   0.32601000   0.11211000
C    3.53269700   1.41759700   0.16047900
C    3.79382500   2.00478700  -1.21095800
C    3.23537300   3.27796600  -1.29415900
C    2.70808500   3.66522500  -0.07162300
C    2.99220700   2.62524500   0.97429800
H    2.08029700  -1.43500500  -1.01173600
H    3.68826000  -1.20302100  -0.66988000
H    2.32913800  -0.18679800   1.07496000
H    1.49314700   0.74650400  -0.20501500
H    4.44491800   0.99523600   0.61700500
H    2.95098900  -0.26678600  -1.82250900
H    4.40792400   1.54032100  -1.98713800
H    3.24225800   3.89898500  -2.19099200
H    2.22462300   4.61896800   0.14037000
H    3.75969700   2.99180300   1.67743900
H    2.11363400   2.37634100   1.59251200