17
Properties=species:S:1:pos:R:3 pbc="F F F"
C        1.46778953      -0.41354984      -0.43846986
N        2.88532901      -0.07840997      -0.41581985
C        3.10530877       1.23471951       0.23093991
C        4.60960817       1.64117944       0.25867990
N        5.44568825       0.51977980       0.70578974
C        5.06262827       2.06534910      -1.07863951
C        5.43735838       2.40727901      -2.16893911
H        1.32923949      -1.37541950      -0.94173962
H        0.88429964       0.33721989      -0.98116958
H        1.07033968      -0.51230979       0.57668978
H        3.23146868      -0.02234999      -1.37615943
H        2.75042892       1.17264962       1.26759946
H        2.52169895       2.01153922      -0.27927989
H        4.73570824       2.47566915       0.95798963
H        5.16728783      -0.28073987       0.12996995
H        5.13514805       0.25104991       1.63830936
H        5.78370810       2.70440888      -3.13101888
