17
Properties=species:S:1:pos:R:3 pbc="F F F"
C        0.94315964       0.01013000       0.10778996
C        2.46472907       0.00775000      -0.02712999
C        3.16391897       1.05107963       0.90285969
C        4.20687819      -0.02963999       1.24001956
C        3.15880895      -1.08683956       0.84472966
C        2.89912891       0.03267999      -1.53939950
O        2.66090918      -0.82647967      -2.38869929
H        0.62785977      -0.00575000       1.15683949
H        0.50782984      -0.86698967      -0.38269985
H        0.51499981       0.90549970      -0.35515988
H        2.56747890       1.36651945       1.76759934
H        3.56312871       1.94482934       0.41494983
H        5.08493805      -0.01415999       0.58458978
H        4.54126835      -0.05883998       2.28002930
H        3.55511856      -1.95261931       0.30643988
H        2.56110907      -1.44697952       1.69069934
H        3.47184873       0.92924970      -1.83308935
