16
Properties=species:S:1:pos:R:3 pbc="F F F"
C        1.04935956      -0.16132993      -0.01922999
O        2.46732903      -0.05679998      -0.00715000
C        2.89070892       1.30678952      -0.00747000
C        4.41371822       1.36468947       0.00657000
O        4.83559799       2.72809887       0.02706999
C        6.25314760       2.83271885       0.03787998
H        0.78233969      -1.22027957      -0.00692000
H        0.64110976       0.29228991      -0.92841965
H        0.62184978       0.31825987       0.86605966
H        2.49089909       1.82398927       0.87403965
H        2.50693917       1.81932938      -0.89782965
H        4.81218815       0.86082965      -0.88211966
H        4.79713821       0.83929968       0.88902962
H        6.52011776       3.89267850       0.06767998
H        6.67624760       2.39128923      -0.86998969
H        6.66801739       2.34302926       0.92420965
