17
Properties=species:S:1:pos:R:3 pbc="F F F"
C        0.97823966       0.00210000       0.06069998
C        2.49134898       0.02773999      -0.07568997
C        3.23114872       1.05670953      -1.01744962
C        2.82722902       0.07074997      -2.16812921
C        3.27270865      -0.93979967      -1.05387962
O        4.68777847      -0.69817972      -0.82902968
C        4.72363806       0.74283969      -0.79644966
H        0.64445978       0.83193970       0.69240975
H        0.65887976      -0.92890966       0.53905982
H        0.44882986       0.08433997      -0.89085966
H        2.90330887       0.01103000       0.94454968
H        2.89294887       2.09045911      -1.05485964
H        3.45658875       0.09799997      -3.06359887
H        1.78310931       0.05249998      -2.48751926
H        2.99051881      -1.99027920      -1.12463951
H        5.35746813       1.11768961      -1.60510945
H        5.08658791       1.08456957       0.17693993
