18

C    2.39492500  -1.29158500   1.01548800
C    3.41027000  -0.43889700   0.25363600
C    3.18997300   1.00466200   0.28607800
C    4.21839900   1.96680500   0.22634800
C    3.99851000   3.41029500   0.26409200
C    5.11240100   4.24399500   0.89865600
H    2.57488000  -2.35405800   0.81096100
H    1.36337900  -1.05589600   0.71769600
H    2.49270500  -1.13145900   2.09829600
H    3.30566000  -0.66374500  -0.84102300
H    4.45662300  -0.69416100   0.48685900
H    2.15383900   1.36938200   0.32708600
H    5.24929800   1.60308600   0.11130800
H    2.99575800   3.65723200   0.64867200
H    3.94898600   3.66481500  -0.82794000
H    5.16716200   4.05457800   1.97976400
H    4.90763700   5.31126200   0.75007000
H    6.09150000   4.01827900   0.45286000