21

C    0.91904900   0.02533400   0.13026700
C    2.44436100  -0.00611200   0.13474800
C    3.10391500   1.35599000  -0.01120400
N    2.70768600   2.28056600   1.11557700
C    4.63449700   1.34559700  -0.02954600
C    5.18592100   2.74519600  -0.01263800
N    6.45153400   2.94629900   0.47021000
H    0.51423800  -0.99487400   0.15773900
H    0.52899900   0.51012300  -0.77765300
H    0.50310000   0.54870400   1.00679200
H    2.80847400  -0.62085200  -0.70253000
H    2.82338300  -0.49510500   1.04972500
H    2.73631100   1.85725800  -0.92125500
H    2.76160700   1.81066500   2.02716800
H    1.76948400   2.67989900   1.01666100
H    4.95411700   0.77658600  -0.92146900
H    5.00731500   0.77536800   0.84118200
H    3.44296900   3.03616500   1.09459900
H    4.91375000   3.40044300  -0.84971800
H    6.82817700   2.35487900   1.20061900
H    6.89159600   3.85176900   0.36978500