15
Properties=species:S:1:pos:R:3 pbc="F F F"
C        0.87147969       0.77762967       0.11992995
C        2.17145920       0.57811981      -0.10539996
O        3.11735892       1.50462949       0.25024989
C        4.44229841       1.23644960       0.00933000
C        5.40576792       2.10858917       0.32437989
C        6.80549717       1.85257924       0.08464997
C        7.77002716       2.72616911       0.39607984
H        0.13527995       0.03536998      -0.16779993
H        0.52234983       1.68747926       0.59668976
H        2.54539919      -0.31888989      -0.57877976
H        4.64095831       0.27684993      -0.44748983
H        5.12921810       3.05539870       0.78239971
H        7.07970715       0.90314966      -0.37019986
H        7.55486727       3.68769860       0.85095966
H        8.81097698       2.49075913       0.19761993
