17
Properties=species:S:1:pos:R:3 pbc="F F F"
C        1.50091946       0.18328993       1.53290939
C        1.87088931       0.48937982       0.09217997
C        2.76954913       1.71925926       0.01215000
C        2.13952923       3.07319903      -0.16131993
C        0.82870966       3.33361864      -0.08165997
N        4.04981852       1.48815942       0.10119996
N        4.87487793       2.55794907       0.06485998
H        0.87209970      -0.71062976       1.58222938
H        0.95243961       1.01293957       1.98921931
H        2.39575911       0.00584000       2.13822913
H        0.97434968       0.62435979      -0.52026981
H        2.41115928      -0.36428985      -0.33497986
H        2.82681894       3.88641834      -0.37187985
H        0.08087997       2.57855892       0.12951995
H        0.46892983       4.34815836      -0.22672991
H        5.83390808       2.23149920      -0.07892997
H        4.89709806       3.01346898       0.98070961
