11
Properties=species:S:1:pos:R:3 pbc="F F F"
N        1.03741956      -0.03175999      -0.12130996
C        2.36563921       0.09777997      -0.06523997
C        3.19877863       1.18929958      -0.02355999
C        4.51860857       0.67513973       0.02865999
C        4.39400816      -0.69476974       0.01805999
O        3.08385897      -1.05115962      -0.03662999
H        0.43374982       0.74478972       0.12122995
H        0.64398974      -0.94752961       0.06806998
H        2.89526892       2.22567916      -0.03536998
H        5.44352818       1.23248959       0.06658997
H        5.09923840      -1.51329947       0.04194998
