13

C    1.82871800  -0.98820500  -0.16608100
N    2.88683900  -0.39526900   0.19070500
N    3.29742300   0.80998900  -0.02287200
C    4.36600800   1.38679400   0.36232400
C    4.64862200   2.81149700   0.01907600
C    4.91513300   3.55141800   1.25191200
C    5.12532600   4.13703200   2.28563300
H    1.70480300  -2.03133300   0.14371100
H    1.05913500  -0.47963600  -0.76446400
H    5.08722800   0.82330500   0.97584400
H    3.81435500   3.24566400  -0.55172100
H    5.54287000   2.82121500  -0.63218400
H    5.31798100   4.67565300   3.19786400