16
Properties=species:S:1:pos:R:3 pbc="F F F"
C        1.90855920      -0.09588996      -0.43949983
C        3.17898893      -0.31294987       0.36531988
N        4.07528830       0.81069970       0.19819993
C        5.31137848       0.92768961       0.77471972
C        6.20211792       2.04254937       0.27759990
N        5.76675797       0.17253993       1.71366942
H        1.21765959      -0.93246967      -0.29538989
H        2.13088942      -0.01673999      -1.50865948
H        1.40195942       0.82503968      -0.13342994
H        3.66906857      -1.23489952       0.03206999
H        2.91682911      -0.42885986       1.42288947
H        3.91411853       1.37860942      -0.62738979
H        5.75275755       3.00480890       0.53952980
H        6.29865742       1.97802925      -0.81012970
H        7.19596720       1.97703934       0.72891974
H        5.06751823      -0.52269977       1.97180927
