11
Properties=species:S:1:pos:R:3 pbc="F F F"
C        0.96797961      -0.12032996       0.01511999
C        2.47100925       0.08148997       0.01908999
C        2.81209898       1.55005944       0.00480000
O        2.91686893       2.20430923      -1.02833962
C        2.96945882       2.17919922       1.30473948
N        3.08680892       2.64567900       2.36222911
H        0.72587973      -1.18728960      -0.00140000
H        0.51112980       0.34909984      -0.86251968
H        0.50807983       0.32165986       0.90516967
H        2.91939902      -0.38212988      -0.86678970
H        2.92293906      -0.39752987       0.89464962
