13
Properties=species:S:1:pos:R:3 pbc="F F F"
C        0.99999964       0.00000000       0.00000000
C        2.44399905       0.00000000       0.00000000
C        3.63415861       0.00000000       0.00000000
C        5.06548786      -0.00397000       0.02442999
C        5.81027794      -0.76302975      -1.04219961
N        5.78018808       0.69352978      -1.04285967
H        0.60594976       1.02085960       0.01164000
H        0.60591978      -0.52054983       0.87822968
H        0.60600978      -0.50031978      -0.88994968
H        5.52278805       0.04842998       1.00758970
H        5.24729824      -1.24708951      -1.83105934
H        6.74931717      -1.23301947      -0.78243971
H        6.65218735       1.08402956      -0.68477970
