15
Properties=species:S:1:pos:R:3 pbc="F F F"
C        1.45822942      -0.66692978       0.88090968
C        2.22124910      -0.15949994      -0.09626997
C        3.15600872       1.00703967       0.06857998
C        4.59606791       0.58129978       0.03621999
C        5.36683798       0.45064983       1.12832952
C        5.21769810       0.32407990      -1.28862953
O        4.61327791       0.46486983      -2.34536910
H        0.80089968      -1.50903952       0.68784970
H        1.47460949      -0.26288989       1.88777924
H        2.16935921      -0.59875977      -1.09215963
H        2.94238901       1.52798939       1.01126969
H        2.95742893       1.74263930      -0.72053975
H        4.96003819       0.63531977       2.11874914
H        6.40899754       0.15137994       1.07812965
H        6.27138758      -0.00157000      -1.27084947
