15
Properties=species:S:1:pos:R:3 pbc="F F F"
C       -0.46172985       1.44139946      -0.47334981
O       -1.27534962       0.55845982       0.28264990
C       -1.33084941      -0.75684971      -0.24717991
C       -0.22338992      -1.58321941       0.31940988
C        1.05588961      -1.20786953       0.44809982
C        1.63798928       0.02543999      -0.02077999
C        1.00606954       1.13835955      -0.42023984
H       -0.61367977       2.43926907      -0.04686998
H       -0.80854964       1.48411953      -1.51231945
H       -1.33401954      -0.77116966      -1.34253943
H       -2.28222895      -1.18560958       0.08385997
H       -0.50869983      -2.56944919       0.67995977
H        1.75708926      -1.90624928       0.90228963
H        2.72846913       0.02094999      -0.05303998
H        1.63226938       1.96169925      -0.76447970
