19
Properties=species:S:1:pos:R:3 pbc="F F F"
C        0.83303970       0.85988969       1.05086958
C        2.32320905       0.80052972       0.96497965
C        3.04338884       1.39758945       0.00051000
C        4.54035854       1.33540940      -0.09600996
C        5.14710808       2.70549917       0.00264000
C        5.86926794       3.28301883      -0.97092962
C        6.47658730       4.64385796      -0.86452967
H        0.41684985      -0.15090995       1.00088966
H        0.39412984       1.45047951       0.24059992
H        0.53272974       1.30926943       2.00225925
H        2.82754898       0.23302990       1.74368942
H        2.53566909       1.96071923      -0.78000969
H        4.80763817       0.85549968      -1.04500961
H        4.96002817       0.71096975       0.70170969
H        4.98209810       3.23624897       0.93851966
H        6.03875780       2.75316906      -1.90582931
H        6.27063799       5.11522818       0.10157996
H        6.07968760       5.29140806      -1.65223932
H        7.56190729       4.57767820      -0.98750961
