13

C   -1.36551300   0.68539100   0.09346600
C   -1.06559600  -0.78265400  -0.10495200
O   -0.25955900  -1.35176000   0.83791800
C    0.50166200  -1.07632100  -0.29121700
C    1.15929200   0.21664000  -0.28536100
O    0.92948000   0.98586300   0.84854700
C   -0.00170200   1.30894200  -0.09545100
H   -2.08441200   1.05442200  -0.64812700
H   -1.74644400   0.87454400   1.10866700
H   -1.68675300  -1.43181700  -0.73977700
H    0.78892100  -1.89700100  -0.95593900
H    1.99418800   0.47253300  -0.94518200
H    0.15943800   2.19784800  -0.72325200