19
Properties=species:S:1:pos:R:3 pbc="F F F"
C        0.99197960      -0.09362996       0.00493000
C        2.51186919      -0.04862998       0.00974000
C        3.03008890       1.38983941       0.00871000
C        4.55968857       1.42644942       0.00634000
N        5.01965809       2.81619906       0.01259000
C        6.47508764       2.88571882       0.01640999
H        0.64335972      -1.13125956       0.01181000
H        0.58813977       0.39445984      -0.88773966
H        0.58167976       0.40839985       0.88685966
H        2.89002895      -0.58246976      -0.87004966
H        2.88399887      -0.57755977       0.89507967
H        2.64549899       1.91559923       0.89165962
H        2.64528894       1.91681933      -0.87386966
H        4.93391800       0.91315967      -0.88720965
H        4.94093847       0.89730966       0.88797963
H        4.65735817       3.29042864       0.83991969
H        6.89475727       2.42124915      -0.88103962
H        6.89791775       2.40197921       0.90246964
H        6.78895760       3.93361855       0.02262999
