12
Properties=species:S:1:pos:R:3 pbc="F F F"
C        0.35136986       1.27007949       0.02000999
O        1.20978951       0.33218989      -0.62331980
C        1.02548969      -0.97116965      -0.07825997
C       -0.42602983      -1.29504955       0.01932999
C       -1.34483945      -0.32829988      -0.05122998
O       -1.04572964       1.00347960      -0.15854993
H        0.55300981       2.25538898      -0.41124985
H        0.58269978       1.32667959       1.09181952
H        1.50641942      -1.03424966       0.90388972
H        1.52362943      -1.67983937      -0.74690974
H       -0.72247970      -2.33281922       0.12061996
H       -2.41329932      -0.49620980      -0.04007998
