15
Properties=species:S:1:pos:R:3 pbc="F F F"
N        2.76636887      -1.09806955      -0.47619981
C        2.12737918       0.04339998       0.16805995
C        3.12276888       1.17144954       0.25980991
O        4.26854801       0.89533961       1.08865964
C        3.39777875       2.03765917      -0.93918961
C        2.66176915       2.60370922       0.24432991
H        2.22956920      -1.94044924      -0.28653991
H        3.68398881      -1.22950959      -0.04728998
H        1.80405927      -0.23309991       1.17755961
H        1.23934960       0.33432987      -0.40202984
H        4.03815842       0.95957965       2.03027940
H        2.84109879       1.84019923      -1.84761930
H        4.42131853       2.35102916      -1.10772955
H        3.18757868       3.32082868       0.86345965
H        1.60485935       2.80978894       0.12559995
