17
Properties=species:S:1:pos:R:3 pbc="F F F"
C        0.99263966      -0.05915998       0.07453997
C        2.50674915      -0.00346000       0.03271999
C        3.18100882       1.07877958       0.90955961
C        4.20039845      -0.02877999       1.24281955
N        3.13512897      -1.01512957       0.92996967
C        3.67806864      -2.12627912       0.15607995
H        0.62189978      -0.95266962      -0.43949983
H        0.56482977       0.81441969      -0.42879987
H        0.60872978      -0.07474998       1.10100961
H        2.88453889       0.00357000      -1.00000966
H        2.59060907       1.41281950       1.77105939
H        3.57567859       1.95083916       0.38212988
H        5.07273817      -0.03397999       0.57721978
H        4.54763794      -0.04397998       2.27990913
H        2.86136889      -2.75275898      -0.21975991
H        4.30190849      -2.75751901       0.79813969
H        4.28519869      -1.81295931      -0.70200974
