21
Properties=species:S:1:pos:R:3 pbc="F F F"
C        2.83913898      -0.86026967      -1.12142956
C        2.44085908       0.05875998       0.02713999
C        3.02411866       1.49703944      -0.02903999
C        2.53215909       2.23904920      -1.28548956
C        2.50785899       2.26008916       1.20964956
C        4.56963825       1.49749947      -0.03202999
O        5.10841799       0.76293969       1.05896962
H        2.37604904      -1.84342921      -0.98546964
H        3.92132854      -1.01091957      -1.16272962
H        2.50229907      -0.47077984      -2.08601928
H        2.73813891      -0.42301983       0.96752965
H        1.34458947       0.11506996       0.05073998
H        2.92847896       1.79095936      -2.20244908
H        2.85185909       3.28744888      -1.27296960
H        1.43851948       2.22633910      -1.35012949
H        2.77832890       1.75121927       2.14101911
H        1.41549957       2.34812903       1.19045949
H        2.92099881       3.27421856       1.25042963
H        4.96490812       2.51897907       0.01652999
H        4.96025848       1.05099964      -0.95236963
H        4.92524815       1.26293957       1.87177932
