13
Properties=species:S:1:pos:R:3 pbc="F F F"
C        0.93998963      -0.02956999       0.00569000
C        2.43318892      -0.00120000       0.00629000
C        3.13901877       1.13798952       0.00000000
C        4.54501867       1.13798952       0.00000000
C        5.73517752       1.13798952       0.00000000
C        7.17498732       1.15091956      -0.00000000
O        7.79578686       2.20394897      -0.00001000
H        0.58699977      -1.06555963      -0.01726999
H        0.53884983       0.47935981      -0.87620962
H        0.54057980       0.43997982       0.90985966
H        2.94255900      -0.96222961       0.01172999
H        2.63139892       2.09897923      -0.00484000
H        7.66161728       0.16316994      -0.00001000
