22

C    1.62069300   0.61830100  -2.45079300
C    2.53415100   1.50422000  -1.60854400
C    3.92928400   0.90595600  -1.46416100
C    4.87613500   1.63407700  -0.44344300
C    6.21975400   0.94376500  -0.29569100
N    4.97740100   3.00929600  -0.83266400
C    6.09107700   3.61011700  -1.49574500
H    0.62551100   1.07138200  -2.55306300
H    1.49225800  -0.37200000  -1.98918100
H    2.02870700   0.47117500  -3.46180600
H    2.08867100   1.64636600  -0.60848900
H    2.59061800   2.50294800  -2.07700800
H    4.44861600   0.86389200  -2.43590600
H    3.86437400  -0.12725200  -1.08859700
H    4.32624800   1.64146100   0.51682300
H    6.74953400   0.85714100  -1.25535100
H    6.05062200  -0.07397500   0.07892600
H    6.86572600   1.46087500   0.42838500
H    4.13380200   3.57582800  -0.70929900
H    6.33328700   3.02886400  -2.40460600
H    6.98195400   3.56184500  -0.84511100
H    5.86827300   4.64935200  -1.75759300