18

C    1.03132000  -0.20851200  -0.03671300
C    2.57520100  -0.16118500   0.04142800
C    2.98219700   1.26907100   0.02269100
C    4.82633800   1.43285300   0.08846700
C    5.13476700   2.89446400   0.01386600
O    5.19521100   0.75665200   1.16031400
H    0.72189400  -1.26301300  -0.02628900
H    0.65408900   0.24860400  -0.96200000
H    0.56545600   0.29305100   0.82276400
H    2.99705200  -0.70290400  -0.81850200
H    2.91494900  -0.65525300   0.96198000
H    2.72347600   1.86286100   0.91077500
H    2.81016400   1.81230100  -0.91671900
H    4.98131400   0.82327900  -0.81589100
H    4.80548700   3.43611900   0.91385500
H    4.68173700   3.35675400  -0.87112500
H    6.23047700   2.99807200  -0.07375400
H    5.35521100   1.32779000   1.93095100