17
Properties=species:S:1:pos:R:3 pbc="F F F"
C        1.18840957      -0.88925964       0.15341994
C        2.53415918      -0.26256990      -0.20315993
C        3.20608878      -1.02272964      -1.34097958
C        2.35920930       1.19979954      -0.59971976
O        1.34087944       1.61987936      -1.14529955
C        3.51239872       2.10820937      -0.32106990
C        3.45750880       3.40750861      -0.63785976
H        0.69482976      -0.32172987       0.95002967
H        1.32007945      -1.91877925       0.50241983
H        0.51156980      -0.90770966      -0.70786977
H        3.16938901      -0.30649987       0.68985975
H        2.60835910      -0.97540963      -2.25804901
H        3.34571862      -2.07622910      -1.07801962
H        4.18979836      -0.59890974      -1.56898940
H        4.39092827       1.67868936       0.14432995
H        2.57742906       3.84147859      -1.10596955
H        4.29414797       4.06727839      -0.43560985
