15
Properties=species:S:1:pos:R:3 pbc="F F F"
C        3.90590858      -1.10543954       0.00095000
O        2.90307903      -0.09744997      -0.06494997
C        3.32454872       1.20186961      -0.10168996
C        4.57380819       1.69295931      -0.09118997
C        4.92202806       3.11732888      -0.13185996
C        4.90346813       3.90360856       1.15535963
O        6.12721777       3.61716866       0.46958983
H        3.40472865      -2.07776928       0.02789999
H        4.50056839      -1.00654960       0.91496968
H        4.54586840      -1.07941961      -0.88675970
H        2.45448899       1.84921932      -0.14282995
H        5.42468834       1.01985967      -0.05269998
H        4.59654856       3.62650871      -1.03397965
H        4.72545815       3.38781881       2.09050918
H        4.54044819       4.92290831       1.12661958
