17
Properties=species:S:1:pos:R:3 pbc="F F F"
C        1.34914947       2.87957883      -0.56138980
O        2.62651920       2.82494879       0.05878998
C        3.30158877       1.60320938      -0.23977990
C        4.62460804       1.62132943       0.44526982
O        5.70565796       1.04150963      -0.30162987
C        5.75530767       2.45856905      -0.08924997
C        6.85184765       2.91676903       0.80325967
H        0.90108961       3.85171866      -0.34001988
H        0.69910973       2.09541917      -0.16245994
H        1.44175947       2.77744913      -1.64681947
H        3.41984868       1.50632942      -1.32572949
H        2.71034884       0.75650966       0.12672995
H        4.56212854       1.43120944       1.50758946
H        5.57168770       3.12083888      -0.92450964
H        7.10872746       2.16597915       1.55824935
H        6.55636740       3.83423853       1.32194948
H        7.75122738       3.13061881       0.21711992
