19

C    2.95818300  -2.02411800  -0.67372400
C    2.79465600  -0.77311900   0.09257100
C    2.11350800  -0.77372000   1.32827500
C    3.36962200   0.47856300  -0.41010300
C    4.78682900   0.55650500   0.25526000
C    5.56131500   1.78451700  -0.28977600
O    6.85065600   1.77185300   0.20664300
H    2.12519700  -2.05144700  -1.40723100
H    2.88771800  -2.93020700  -0.05887800
H    3.88154500  -2.02310900  -1.27033000
H    1.62140900  -1.67753800   1.69991900
H    2.04569600   0.13567700   1.93285000
H    2.78830700   1.36231500  -0.10747700
H    3.48740300   0.46223900  -1.50286700
H    5.37272300  -0.34730200   0.03179900
H    4.70044200   0.63689400   1.35043800
H    5.00628200   2.70819300  -0.04729200
H    5.61763600   1.70168200  -1.38639000
H    6.89909400   2.24654000   1.04281200