17
Properties=species:S:1:pos:R:3 pbc="F F F"
C        0.86114967      -0.29255989      -0.03102999
C        2.38021898      -0.12641995       0.05359998
N        3.02737880      -1.14220965      -0.78624970
C        2.84410882       1.28004944      -0.38336986
C        2.34579897       2.37792921       0.51783979
C        1.58529937       3.40101862       0.10795996
H        0.34946987       0.39520988       0.64958972
H        0.56268984      -1.30808949       0.25147992
H        0.49350983      -0.10228996      -1.04505968
H        2.69439912      -0.30128989       1.09023964
H        2.72886896      -1.02683961      -1.75406933
H        2.70992899      -2.06869936      -0.50407982
H        2.53719926       1.46694946      -1.42060947
H        3.94097853       1.31817949      -0.37236986
H        2.64690900       2.32805920       1.56241941
H        1.26887953       3.49984884      -0.92582965
H        1.26481950       4.16918850       0.80551970
