19
Properties=species:S:1:pos:R:3 pbc="F F F"
C        1.00297964       0.02772999       0.06117998
C        2.34415913       0.00665000       0.02737999
C        3.13466883      -1.27812946       0.01479999
C        4.10149860      -1.30763948      -1.16948950
C        4.98206806      -0.05829998      -1.21557951
C        4.14375830       1.22169948      -1.20926952
C        3.17599869       1.26242959      -0.02556999
H        0.45092985       0.96334964       0.06031998
H        0.42073983      -0.88726962       0.09044996
H        2.47565913      -2.15333915      -0.03398999
H        3.69810867      -1.35651946       0.95359963
H        4.73408842      -2.20006919      -1.10488963
H        3.53391886      -1.38560951      -2.10477924
H        5.65748787      -0.05522998      -0.35118985
H        5.61028767      -0.08265997      -2.11312914
H        4.80628824       2.09430933      -1.17298949
H        3.57908845       1.28906953      -2.14844918
H        3.74170852       1.35292947       0.90924966
H        2.54666924       2.15618920      -0.10466997
