15
Properties=species:S:1:pos:R:3 pbc="F F F"
C        2.88514876       2.60118914      -3.13692880
C        2.05254936       2.57853913      -2.09032917
O        2.32958913       2.71787906      -0.76107973
C        3.69716859       2.88376880      -0.36442986
O        4.20551825       4.17468834      -0.70659977
C        5.48735809       4.46519852      -0.33556989
C        6.37480783       3.70351863       0.31343988
H        2.49448895       2.47787905      -4.14217854
H        3.95274854       2.75752902      -3.04106879
H        0.98376966       2.43955898      -2.21672916
H        4.31099844       2.08231926      -0.79591972
H        3.70757866       2.77557898       0.72627974
H        5.72639799       5.47534800      -0.65376973
H        6.16752768       2.69389892       0.64529973
H        7.36326742       4.09692860       0.53343982
