17
Properties=species:S:1:pos:R:3 pbc="F F F"
C        2.43058920      -0.50892985      -1.54223943
C        2.42278910       0.04036999      -0.12481996
C        3.30087876       1.27976954      -0.02669999
C        2.74757910       2.58933902      -0.66629976
C        3.05944896       3.38657880       0.62187982
C        3.23767877       2.02902913       1.32585943
O        3.29609871       1.68672943       2.48737907
H        1.81670928      -1.41217947      -1.60291946
H        3.44709873      -0.76301968      -1.85769939
H        2.03242922       0.22300991      -2.25119901
H        2.79572892      -0.73102969       0.55988973
H        1.39236951       0.26703990       0.17514995
H        4.34253836       1.07343960      -0.30733988
H        1.67778945       2.56124902      -0.90590966
H        3.28903890       2.92767906      -1.55520940
H        3.98081851       3.97423863       0.58770978
H        2.23666906       3.99285865       1.00508964
