14
Properties=species:S:1:pos:R:3 pbc="F F F"
C        1.03458953       0.01791999       0.16190995
C        2.52751899      -0.12261995       0.05239998
C        3.10959864      -1.33339953      -0.00091000
C        3.33053875       1.14765966      -0.03580999
N        3.27861881       1.89690936       1.21043944
H        0.75774968       0.50006980       1.10452962
H        0.52732980      -0.95227963       0.12644996
H        0.64846975       0.62161976      -0.66593975
H        2.52769923      -2.24807930       0.05446998
H        4.18696833      -1.44060946      -0.08252997
H        2.95472884       1.76674926      -0.85850966
H        4.37967825       0.92698967      -0.26408991
H        2.33313918       2.24395919       1.35505950
H        3.87028837       2.72079897       1.12529957
