15
Properties=species:S:1:pos:R:3 pbc="F F F"
C        0.65273976       0.13824995      -0.01010000
C        2.12549925       0.00442000       0.20199993
C        3.00122881       0.98474962      -0.05484998
C        4.44358826       0.77218974       0.18209994
N        5.31289768       1.70034933      -0.05659998
N        6.59855747       1.26205957       0.24413991
C        7.46103716       2.19042921       0.00240000
H        0.30856988      -0.61868978      -0.72125971
H        0.37894985       1.12338960      -0.40064985
H        0.12485995      -0.01290999       0.93627965
H        2.46758914      -0.95500970       0.58653980
H        2.70796895       1.95547926      -0.43783984
H        4.74057817      -0.21820992       0.57251978
H        8.53065681       2.00666928       0.18688993
H        7.18343735       3.18408871      -0.38866985
