13
Properties=species:S:1:pos:R:3 pbc="F F F"
C        0.97522962      -0.18950993       0.13589996
C        2.45886898       0.07492997      -0.08634996
C        2.79348898       1.54494941      -0.04450998
C        3.12498903       2.22637939      -1.15482962
C        2.79201889       2.21464920       1.21877956
N        2.78877902       2.75390911       2.24627924
H        0.77126974      -1.26351953       0.07486998
H        0.36617988       0.31359988      -0.62274975
H        0.64924979       0.15761994       1.12174964
H        2.75089908      -0.35830986      -1.05131960
H        3.04370880      -0.45621985       0.67501974
H        3.14882898       1.74800932      -2.12999916
H        3.37964869       3.28363872      -1.12243962
