15

C    1.81205300  -0.10606300   1.65971300
C    2.71526300  -0.19699100   0.67127800
C    3.12458700   0.98569100  -0.04920600
N    3.98383400   0.93872000  -0.99665400
N    4.45777400   1.90038900  -1.73749500
C    4.72896800   1.84169900  -3.16194900
C    5.83359700   2.06132500  -2.17028900
H    1.49232600  -0.99139100   2.21354100
H    1.36354500   0.84948000   1.94798600
H    3.16360900  -1.15080600   0.38279600
H    2.69186100   1.96244600   0.21799100
H    4.35537000   2.69903400  -3.72982200
H    4.60943300   0.85797000  -3.62493200
H    6.50601900   1.23505600  -1.92231100
H    6.23263000   3.07228500  -2.04454300