19
Properties=species:S:1:pos:R:3 pbc="F F F"
C        1.51441944      -0.55236977      -0.92607963
O        2.23458910      -0.01585999       0.17414993
C        3.02753878       1.17643952      -0.05666998
C        4.23208809       0.85973966      -0.93941963
C        2.23227906       2.46084905      -0.44069982
C        3.10051894       3.25147891       0.55113977
C        3.41354871       1.92128932       1.25807953
H        0.82768971      -1.31522954      -0.54870981
H        2.20137906      -1.02411962      -1.63378942
H        0.93138963       0.22387992      -1.42926955
H        4.90257835       1.72019935      -1.04082966
H        3.91914868       0.57371980      -1.94877934
H        4.81451845       0.03367998      -0.51682979
H        1.17216957       2.42800903      -0.16139993
H        2.30804896       2.78156877      -1.48368943
H        3.97570848       3.72498846       0.09277996
H        2.57290912       3.99470854       1.15449953
H        4.44695854       1.80758941       1.59761941
H        2.74570918       1.70519936       2.10062933
