15
Properties=species:S:1:pos:R:3 pbc="F F F"
C        1.03385961       0.08465997      -0.24085991
N        2.45370913      -0.03317999       0.07516997
C        3.18190885      -0.89700967      -0.84394968
C        3.32018876       0.60856974      -0.90990967
C        4.54477835       1.22725952      -0.40221986
C        5.71816826       1.29094958      -1.04653966
H        0.64628977       1.02773964       0.15839994
H        0.48272982      -0.73009974       0.24017990
H        0.80460972       0.05563998      -1.31327951
H        2.63630915      -1.39927948      -1.63309944
H        3.98554850      -1.47699952      -0.40587986
H        2.85016894       1.12949955      -1.73789942
H        4.48029852       1.67760932       0.58724982
H        5.84454775       0.86118966      -2.03406930
H        6.57576752       1.77296925      -0.58868980
