18
Properties=species:S:1:pos:R:3 pbc="F F F"
N        1.48843944      -0.04056999      -0.94568962
C        2.61180902      -0.04980998      -0.02113999
C        3.12152863       1.34133947       0.15491995
C        4.38041830       1.73053944      -0.10853996
C        4.90499830       3.08741879       0.06777998
C        5.72276783       3.69135857      -1.04427958
C        4.34139824       4.20727825      -0.76665974
H        1.16641951      -0.99649960      -1.08509958
H        1.81787932       0.28104991      -1.85527933
H        3.39048862      -0.72206974      -0.39479986
H        2.27872920      -0.43503985       0.94836962
H        2.40810895       2.07252932       0.52947980
H        5.08996820       0.98945963      -0.47225982
H        5.20228767       3.32583880       1.08411956
H        5.87397766       3.12581897      -1.95668924
H        6.56312752       4.31886864      -0.77026969
H        4.24478865       5.18229818      -0.30193987
H        3.56171870       3.98494840      -1.48691952
