19
Properties=species:S:1:pos:R:3 pbc="F F F"
C        1.51348948      -0.12777995       0.55585980
N        2.92673874       0.20078991       0.67631978
C        3.18627858       1.65010941       0.65347975
C        2.51125908       2.40111923       1.80411935
C        4.68827820       1.80457926       0.75535971
C        5.53759766       1.88187933      -0.49049982
N        5.32483816       3.05949879       0.34214985
H        1.40350950      -1.21280956       0.45338982
H        1.06125963       0.33758986      -0.32789987
H        0.95198965       0.16239995       1.44747949
H        3.42208886      -0.22177993      -0.10883996
H        2.83364892       2.06778932      -0.29855990
H        2.79120898       1.98027921       2.77639890
H        1.42044950       2.37758899       1.71835935
H        2.81201887       3.45504880       1.80550933
H        5.10400772       1.32862949       1.63752937
H        5.05330801       1.90189934      -1.45881951
H        6.52767754       1.44460952      -0.47152981
H        6.14097786       3.24956870       0.92743963
