16
Properties=species:S:1:pos:R:3 pbc="F F F"
C        0.81947970       0.08708996       0.05933998
C        2.28820896       0.05879998       0.32668987
C        3.17939878       0.86782968      -0.26759988
C        4.62319803       0.86837965      -0.01822999
C        5.44254827      -0.31888989      -0.45182985
C        5.55861807       0.98050964      -1.19347954
H        0.49115980      -0.88537967      -0.31994990
H        0.54668981       0.85029972      -0.67620975
H        0.27625990       0.29654989       0.98583961
H        2.63606906      -0.67381972       1.05150962
H        2.81870890       1.60237932      -0.98598963
H        4.92100811       1.37148952       0.89711964
H        4.94766808      -1.14422953      -0.95125967
H        6.26904774      -0.61929977       0.18175994
H        6.46572781       1.55987942      -1.06374967
H        5.14557791       1.02729964      -2.19485903
