15
Properties=species:S:1:pos:R:3 pbc="F F F"
C        0.51430982      -0.24748991       0.06276998
C        1.96818924      -0.52633977       0.30264989
C        2.45219922      -1.74464941       0.57264978
O        2.83613896       0.58492976       0.36954987
C        2.92627883       1.35944939      -0.75933969
C        3.86288857       2.50096917      -0.49435982
O        2.35641932       1.18078959      -1.82700932
H        0.19592993       0.63017976       0.63460976
H       -0.11216996      -1.08892965       0.37797987
H        0.31542987      -0.06589998      -0.99693960
H        1.81199932      -2.62051892       0.57792979
H        3.50534868      -1.89175928       0.78820968
H        4.84389830       2.11666918      -0.20347993
H        3.45238876       3.14279866       0.28902987
H        3.98044848       3.09288883      -1.40683949
