17
Properties=species:S:1:pos:R:3 pbc="F F F"
C        0.82505971      -0.13749994      -0.49633983
C        2.25790906      -0.01065000      -0.02459999
C        3.30225873      -0.69516975      -0.89263970
C        3.18716884       0.79800975      -0.91561967
C        2.46171904       0.03762999       1.50644946
C        1.70066929       0.96356964       2.42316914
O        1.36306953      -0.42341983       2.30999899
H        0.75396973      -0.17028993      -1.58946943
H        0.22984992       0.71501976      -0.15399994
H        0.37456986      -1.05712962      -0.10886996
H        2.97252893      -1.24674964      -1.76639938
H        4.16877842      -1.13264954      -0.40850982
H        3.97705865       1.37429953      -0.44658983
H        2.78070903       1.26330960      -1.80694938
H        3.45452881      -0.24340992       1.85089922
H        1.02101958       1.68472946       1.98872924
H        2.18021917       1.28770947       3.33787870
