15
Properties=species:S:1:pos:R:3 pbc="F F F"
C        0.85681969       0.35714987      -0.27711990
C        2.30855894       0.08727996       0.01511999
C        2.83692884      -1.10949957       0.33643988
C        2.13799930      -2.37085915       0.43688986
C        2.74846911      -3.51071858       0.78377968
C        3.19845867       1.20805955      -0.04533998
C        3.94055843       2.15046930      -0.09668996
H        0.51604980       1.24043953       0.27537990
H        0.19421992      -0.46304983       0.00757000
H        0.71783972       0.54964978      -1.34634948
H        3.90886855      -1.15912962       0.53556985
H        1.07555962      -2.40460920       0.21544993
H        3.80778861      -3.55438852       1.01557970
H        2.18829918      -4.43903828       0.84364969
H        4.59935856       2.98616886      -0.14170995
