13
Properties=species:S:1:pos:R:3 pbc="F F F"
C        0.48196980      -0.56977975       0.27307990
C        1.93679929      -0.41571987      -0.12963995
O        2.30803919       0.96892965      -0.12611996
C        2.04878926       1.64511931      -1.27449942
O        1.53558946       1.19536948      -2.28733921
C        2.45033908       3.02790880      -1.19042945
C        2.78262901       4.18054819      -1.12230957
H        0.20313993      -1.62602937       0.32330987
H       -0.17903993      -0.06741997      -0.44021982
H        0.30335990      -0.11012995       1.25071955
H        2.13463926      -0.87914968      -1.10319960
H        2.57595897      -0.92086965       0.60186982
H        3.07530904       5.20328808      -1.06545949
