19
Properties=species:S:1:pos:R:3 pbc="F F F"
C        0.79208970       0.33116987       0.19909993
C        2.27196932       0.09876996       0.15201995
C        2.80180883      -1.13406956       0.17401993
C        3.20807886       1.25577950       0.03516999
C        2.63665915       2.69776893       0.12026996
C        3.92394853       3.08057880       0.88113970
C        4.00382853       1.60586941       1.32486939
H        0.46952981       0.93470961      -0.65526980
H        0.51484978       0.84853971       1.12298954
H        0.23032992      -0.60866976       0.16747993
H        2.17619920      -2.01952910       0.24247991
H        3.87486839      -1.29693949       0.12319995
H        3.86458850       1.14171958      -0.84112966
H        1.73461938       2.82817888       0.72856975
H        2.49128890       3.20595884      -0.83714974
H        4.74785852       3.39239883       0.22912991
H        3.80400848       3.81384850       1.68223941
H        5.01302814       1.19006956       1.38943946
H        3.47521877       1.40300953       2.26448917
