11

N    1.03510900  -0.00584200   0.00001000
N    2.30348400  -0.03643000  -0.00001800
C    2.97104400   1.12085500  -0.00000600
C    4.34392100   1.08780700  -0.00002800
C    5.58227300   1.09518000  -0.00003500
C    6.93202200   1.09457000  -0.00000800
C    8.15374900   1.09310200   0.00001600
H    0.54595900  -0.90169300   0.00003800
H    0.48388000   0.86172600   0.00002400
H    2.44902600   2.09144900   0.00002100
H    9.23344700   1.09229300   0.00003600