17
Properties=species:S:1:pos:R:3 pbc="F F F"
C        2.27899909       3.88299870       1.05010962
C        3.74611855       3.54593849       0.85736972
O        3.82806873       2.33716917       0.10144997
C        5.07413769       1.85317934      -0.18008992
C        6.27270794       2.38457918       0.10373995
C        7.56555748       1.73224926      -0.25485989
O        8.25586700       2.57475901      -1.16300952
H        2.16276908       4.78406811       1.65841937
H        1.75268924       3.05569887       1.53715944
H        1.79223931       4.04517841       0.08295996
H        4.21784830       3.40666866       1.83720922
H        4.23827839       4.36495829       0.32032987
H        4.96661806       0.91088969      -0.70838976
H        6.36089754       3.33104873       0.62638980
H        7.43180704       0.74957973      -0.71724969
H        8.18411636       1.60831928       0.63954973
H        7.66862726       2.70051908      -1.92854929
