17
Properties=species:S:1:pos:R:3 pbc="F F F"
C        1.60344934      -0.24046992      -0.89357966
C        2.42145920       0.28420988       0.27933988
C        2.94576883       1.69079936       0.05340998
C        1.89193928       2.76624918       0.03986998
C        4.27131844       1.88794935      -0.08281997
C        4.94796848       3.18498874      -0.30192986
O        6.16793776       3.25161886      -0.40239987
H        1.31065953      -1.27934957      -0.71111971
H        2.17862916      -0.20855993      -1.82399940
H        0.68735975       0.34150985      -1.03544962
H        3.25067878      -0.41188985       0.45921984
H        1.81117928       0.26771989       1.19026947
H        1.26648962       2.67573905      -0.85443968
H        2.29967928       3.77922869       0.05336998
H        1.24896944       2.67459917       0.92125964
H        4.96554804       1.05164957      -0.04510998
H        4.31403828       4.07918835      -0.37429985
