13
Properties=species:S:1:pos:R:3 pbc="F F F"
C        1.13606954      -0.04453998       0.32939988
C        2.62094903      -0.23745991       0.16424994
O        3.12764883      -1.35584950       0.15622994
N        3.32494879       0.94845968       0.05559998
C        4.68600798       1.00285959      -0.09250996
C        5.34283781       2.16129923      -0.19066992
H        0.82006967       0.95263964       0.01118000
H        0.87203968      -0.18572992       1.38052940
H        0.60949981      -0.77988970      -0.28518990
H        2.81387877       1.82188940       0.09190997
H        5.21279812       0.05044998      -0.12632996
H        4.84096813       3.12186885      -0.15922993
H        6.42168760       2.16569924      -0.30697986
