19
Properties=species:S:1:pos:R:3 pbc="F F F"
C        0.97255963       0.09922996       0.00545000
C        2.47218895      -0.12190995      -0.15013994
C        2.76243877      -1.01464963      -1.35167956
O        3.07448888       1.16360962      -0.32686988
C        4.50359821       1.17555964      -0.14304996
C        5.30852795       1.47367942      -1.37671947
C        5.14908791       2.52129912      -0.31482986
H        0.77018970       0.75212973       0.86074966
H        0.44378984      -0.84652966       0.15568994
H        0.55647981       0.59844977      -0.87647969
H        2.85638881      -0.58438981       0.76772970
H        2.46237922      -0.52603978      -2.28430915
H        2.23902917      -1.97209930      -1.26924956
H        3.83432841      -1.22009945      -1.43295944
H        4.94094849       0.52592981       0.60916972
H        4.77504826       1.61318934      -2.30926919
H        6.27296782       0.99275964      -1.47961938
H        6.00667763       2.75413895       0.30498990
H        4.50566816       3.36809874      -0.52466983
