17

C    2.81423000   0.01271800  -1.67233000
C    2.46213000   0.38421400  -0.22110400
C    2.39406600   1.86830900  -0.01957100
C    1.16509200   2.55327300  -0.03853400
N    3.50234700   2.59785800   0.13727800
C    4.84700100   2.13638000   0.18208800
N    5.85296200   2.87696800   0.32589300
H    2.81894100  -1.08028100  -1.77235500
H    3.80647900   0.38430900  -1.96623200
H    2.07371300   0.41465100  -2.37770800
H    3.18406000  -0.05843600   0.48131900
H    1.48038200  -0.03287300   0.04043300
H    0.23382500   1.99938300  -0.17109600
H    1.10775600   3.63941800   0.07772500
H    3.38583900   3.60827900   0.24183700
H    4.95819700   1.05183200   0.07883000
H    5.66088500   3.87998700   0.41257200