19
Properties=species:S:1:pos:R:3 pbc="F F F"
C        3.55584860       5.02592802      -2.79111886
C        3.80184865       4.65128803      -1.33851945
N        4.85514832       3.63793850      -1.24743962
N        5.16249847       3.23439884       0.00723000
C        6.15797806       2.40839911       0.05250998
C        6.62882757       1.85072935       1.36697948
C        6.40238762       0.35190988       1.40386951
H        2.77240896       5.78737783      -2.85577893
H        3.23148894       4.15863848      -3.37483883
H        4.46099806       5.43244791      -3.25324869
H        2.87406898       4.26793861      -0.89755964
H        4.09758854       5.54576778      -0.77803975
H        4.60813808       2.84757900      -1.84736931
H        6.69983768       2.07805920      -0.85338968
H        6.09504747       2.33628917       2.19044900
H        7.69597721       2.07186937       1.46554947
H        5.33938789       0.11300995       1.29503953
H        6.75338745      -0.06460997       2.35304904
H        6.93967724      -0.14757994       0.59050977
