12
Properties=species:S:1:pos:R:3 pbc="F F F"
C        0.85710967       0.14380994      -0.03141999
C        2.34783912       0.04718998      -0.10587996
N        3.09846902       0.96620965       0.40993986
N        4.44511843       0.66565979       0.22071990
C        5.19004822       1.58261943       0.73534977
C        6.59896755       1.34262955       0.57992977
N        7.74508715       1.18225956       0.47342980
H        0.47191983      -0.73313969       0.49502981
H        0.45206985       0.14846995      -1.04653966
H        0.54854983       1.05196965       0.49192983
H        2.76756907      -0.83754969      -0.61716980
H        4.84155798       2.48689890       1.25684953
