19
Properties=species:S:1:pos:R:3 pbc="F F F"
C        2.61227918      -0.92113960       1.12302959
C        3.02632904      -0.21954991      -0.16116993
C        3.28716874       1.23972952       0.06943997
C        4.46566820       1.84071934      -0.16202995
C        4.73827839       3.26643872       0.03672998
C        4.96715784       3.77300858       1.43660939
C        6.11588764       3.69072843       0.47412980
H        2.41007924      -1.97894931       0.92711961
H        1.70398939      -0.47631982       1.54297948
H        3.40260887      -0.86141968       1.87848926
H        2.22655916      -0.32028988      -0.90442967
H        3.91130853      -0.71787971      -0.57479978
H        2.45397902       1.83428931       0.43685985
H        5.29061794       1.24087954      -0.54258978
H        4.21892834       3.92549849      -0.65289974
H        4.94472837       3.06774879       2.25993919
H        4.58206844       4.75495815       1.68708932
H        6.50904751       4.61758852       0.07221998
H        6.87067747       2.93375897       0.65348977
