17

C    1.12950100   0.15520600  -0.36125500
C    2.51245200  -0.06714100   0.23269900
C    3.17124800  -1.36738900  -0.24002200
C    3.70354900  -1.26198600  -1.60835000
C    3.89885200  -0.01669900  -2.18502800
C    3.76138000   1.18698200  -1.36355000
O    3.39176100   1.02616900  -0.06207400
H    0.74023400   1.13409800  -0.05111400
H    0.44437800  -0.61853900   0.01387200
H    1.11395500   0.09946100  -1.46122500
H    2.44945200  -0.06611400   1.32742000
H    2.46884000  -2.21562900  -0.15273600
H    4.03163400  -1.67853900   0.39430600
H    4.04099100  -2.16155000  -2.13565600
H    4.18279500   0.09869900  -3.23518100
H    4.67173800   1.82084100  -1.41044200
H    3.02084100   1.82467100  -1.93244600