12

C    0.18465300  -0.94617900  -0.45213800
C    1.12839100   0.14670200  -0.17086400
O    2.17011400   0.49542300  -0.54904600
O    0.46803800   1.03675500   0.96075600
C    1.11659000   2.04996200   1.36471100
C    0.56789300   2.87187100   2.37118800
H   -0.77814500  -0.52242200  -0.77419600
H    0.00753400  -1.52082400   0.46910500
H    0.60752000  -1.58701300  -1.23395600
H    2.09910500   2.25459500   0.90851800
H   -0.41079600   2.63399400   2.79821300
H    1.12220900   3.74543100   2.72259600