14
Properties=species:S:1:pos:R:3 pbc="F F F"
O        2.87943888      -1.06297958      -0.01543999
C        2.11254930       0.13093995       0.13868995
C        3.06176877       1.28623950       0.26359990
O        4.18806839       1.03110957       1.12074959
C        3.34482884       2.17972922      -0.91407967
C        2.55439901       2.70015907       0.25563991
H        2.23903918      -1.79022932      -0.09799997
H        1.51145947       0.03819998       1.04839957
H        1.44579947       0.23693991      -0.72282970
H        4.46907854       0.10418996       0.98643959
H        2.82058883       1.99500930      -1.84298933
H        4.35864878       2.54036903      -1.04131961
H        3.03585887       3.41123891       0.91791970
H        1.49381948       2.87102890       0.11651995
