16
Properties=species:S:1:pos:R:3 pbc="F F F"
C        0.98904961      -0.00134000      -0.03582999
C        2.50400901       0.02040999       0.02987999
C        3.07103872       1.12728953       0.89161962
C        4.47042847       0.61695975       1.16384959
O        4.39131832      -0.81586969       1.19042945
C        3.10590887      -1.21009958       0.68598974
H        0.64077979      -0.84344965      -0.64293975
H        0.60901982       0.92210966      -0.48513982
H        0.54453981      -0.09804997       0.96070963
H        2.90944886       0.11978995      -0.98558962
H        2.51485896       1.20821953       1.83348930
H        3.06620884       2.10758924       0.40720984
H        5.15888786       0.89805967       0.35955986
H        4.87417793       0.98197967       2.11242914
H        3.23070860      -2.03917933      -0.01663999
H        2.50925899      -1.56119943       1.53518951
