17

C    0.98100300  -0.01074000  -0.09989300
C    2.49853900   0.01720600   0.05609800
C    3.05827100   1.12854800   0.94589300
C    4.49424900   0.70914700   1.24773100
C    4.40808600  -0.83463100   1.26532400
O    5.25006100  -1.58433800   1.62412000
C    3.01972900  -1.26642400   0.72543100
H    0.65830300  -0.85732700  -0.72144100
H    0.64518700   0.91149800  -0.59515300
H    0.47824500  -0.08034400   0.87645200
H    2.96184600   0.09114300  -0.94223500
H    2.47903100   1.21020800   1.87912600
H    3.04592800   2.11455000   0.45843300
H    5.19311600   0.90357400   0.41253200
H    4.95801000   1.06832200   2.17768300
H    3.10148000  -2.17545300   0.11300800
H    2.47082700  -1.51335700   1.65574700