13
Properties=species:S:1:pos:R:3 pbc="F F F"
N        5.38432789      -1.86653924      -0.22008991
C        4.59067822      -1.03863966      -0.12246995
C        3.59500861       0.00000000       0.00000000
C        4.36117840       1.28634953       0.11354996
C        4.71855831       2.09109926      -1.11241949
C        3.66491866       2.59569907      -0.16662994
H        2.98542881      -0.14439994       0.89778966
H        2.92246890       0.00664000      -0.86430973
H        5.06157780       1.28402948       0.94501960
H        4.39958811       1.73661935      -2.08622909
H        5.67792797       2.59764886      -1.12321961
H        3.91223860       3.44718862       0.45864981
H        2.63413906       2.58321905      -0.50362980
