17
Properties=species:S:1:pos:R:3 pbc="F F F"
C        1.56006944      -0.50148982       0.87621969
C        3.02756882      -0.08881997       0.86726969
C        3.28610873       1.26344955       0.17395993
N        2.58582902       2.35922909       0.84499967
C        4.73322821       1.67054939       0.07074997
C        5.81184816       1.02373958       0.53512985
H        1.45929945      -1.51743948       1.27255952
H        1.14078963      -0.48951980      -0.13494994
H        0.96022964       0.15915994       1.50982940
H        3.59149861      -0.87341970       0.34701985
H        3.39205861      -0.06857998       1.90216935
H        2.90157890       1.20007956      -0.85182965
H        2.83531904       2.35177898       1.83308935
H        1.58195949       2.19734907       0.80574965
H        4.90162802       2.61046910      -0.45573986
H        5.74648762       0.08328997       1.07072961
H        6.80444765       1.43896949       0.38674986
