17
Properties=species:S:1:pos:R:3 pbc="F F F"
C        0.90494967       2.11112928       1.26969945
C        2.40697908       2.31571913       1.27617943
O        2.94768882       1.70004928       0.10684995
C        4.36326838       1.78933942       0.05400998
C        4.88346815       3.18169880      -0.28247988
C        4.35050821       3.81999850      -1.53757942
O        5.70904779       3.75387859       0.43011984
H        0.44235983       2.58936906       2.13757920
H        0.66239977       1.04335964       1.28430951
H        0.46209982       2.52614903       0.35824987
H        2.83971882       1.85956931       2.17320919
H        2.63274884       3.38728881       1.27221954
H        4.71426821       1.11234963      -0.73195976
H        4.80532837       1.44812953       0.99699962
H        4.50270844       3.14747882      -2.38527918
H        4.88695812       4.75316811      -1.73054934
H        3.28741884       4.04066849      -1.41602945
