15
Properties=species:S:1:pos:R:3 pbc="F F F"
C        1.00600958      -0.06679998      -0.06853998
O        2.42451906      -0.00461000      -0.10023996
C        2.89400887       1.33854949       0.00000000
C        4.33800840       1.33854949       0.00000000
C        5.52816820       1.33854949       0.00000000
C        6.97216749       1.33854949       0.00000000
O        7.45811749       2.65635896      -0.21961991
H        0.70508975      -1.11463952      -0.14901996
H        0.57896978       0.48475984      -0.91153967
H        0.62480974       0.33383986       0.87582970
H        2.51535916       1.78808939       0.92512965
H        2.51255894       1.91847920      -0.84800965
H        7.37263680       0.69199973      -0.78665966
H        7.36988688       0.98853964       0.95691961
H        7.00464725       2.98786879      -1.01310968
