19
Properties=species:S:1:pos:R:3 pbc="F F F"
C        0.89772964       0.59383982      -0.72670972
C        2.34989929       0.50671983      -0.29258990
C        3.11418891       1.79757929      -0.54356980
O        2.59901905       2.76351881      -1.10641956
C        4.57365799       1.81538928      -0.09382996
C        5.45572805       1.23108947      -1.19073963
C        5.01446819       3.23102880       0.26789990
H        0.38129985      -0.34908986      -0.52213979
H        0.81926972       0.80075967      -1.79937923
H        0.37467983       1.39368951      -0.19188993
H        2.84575891      -0.30199990      -0.83836967
H        2.39442921       0.28628990       0.77884972
H        4.65503836       1.19776952       0.80861968
H        5.36575794       1.80434930      -2.11992931
H        5.17255831       0.19756992      -1.41509950
H        6.50792742       1.23277950      -0.88832968
H        4.98443842       3.89659858      -0.60208976
H        6.03722763       3.23121881       0.65862978
H        4.35846853       3.65791869       1.03392959
