15
Properties=species:S:1:pos:R:3 pbc="F F F"
C        1.02973962      -0.28104991      -0.47251981
N        2.32136917       0.02024999       0.09160997
C        2.93794894       1.23675954       0.00169000
N        2.57077909       2.45065904      -0.10569996
C        1.16154957       2.78171897      -0.09372996
C        4.38393831       1.18870962       0.04150998
C        5.58337784       1.14100957       0.07537998
H        0.85449970      -1.36076951      -0.42973986
H        0.97742963       0.02581999      -1.52151942
H        0.22632991       0.19913992       0.09141997
H        2.96309900      -0.76575971       0.05754998
H        1.05268967       3.86880851      -0.02229999
H        0.64794976       2.35481906       0.77334970
H        0.66823971       2.46865916      -1.01860964
H        6.64769745       1.11721957       0.10667995
