18
Properties=species:S:1:pos:R:3 pbc="F F F"
N        0.99031967       0.02821999       0.00237000
C        2.44010925       0.00146000       0.02202999
C        3.01534891       1.11854959       0.89194971
C        4.43423843       0.64069974       1.16949952
C        4.27675867      -0.85527962       1.42705941
C        3.04557872      -1.23203957       0.64098978
C        2.56348896      -2.48330903       0.59108979
H        0.65672976      -0.66525978      -0.66341978
H        0.67372978       0.93128967      -0.34343988
H        2.82471895       0.10823996      -1.00044966
H        2.46422911       1.22033954       1.83639932
H        3.00051904       2.08934927       0.38609985
H        5.06907797       0.80914968       0.29059988
H        4.88954782       1.15999961       2.01811910
H        5.16442823      -1.40571940       1.10089958
H        4.11019850      -1.03819966       2.49462914
H        1.65449941      -2.72068882       0.04990998
H        3.06336880      -3.29802895       1.10466957
