17
Properties=species:S:1:pos:R:3 pbc="F F F"
C        1.07982957      -0.06478997       0.88756967
C        2.45151901       0.35100988       0.46478984
C        2.80163908       1.61971939       0.21628992
N        4.04579830       2.05567908      -0.16230994
C        4.50521803       3.32200861      -0.43885982
C        5.98043776       3.45428872      -0.74828976
N        3.80004859       4.40251827      -0.48186982
H        0.66206974      -0.76687968       0.15993993
H        0.39608985       0.78607970       0.97291964
H        1.12594950      -0.56358975       1.86045933
H        3.18249869      -0.44674981       0.36443987
H        2.06284928       2.40936923       0.32185987
H        4.73703814       1.31394958      -0.22227992
H        6.56488752       2.88120890      -0.02294999
H        6.29186726       4.50172853      -0.70736974
H        6.17140770       3.06252885      -1.75120938
H        2.82413888       4.18859863      -0.27706990
