12
Properties=species:S:1:pos:R:3 pbc="F F F"
C        0.94877970      -0.21342991       0.08658996
C        2.43926907       0.06305998       0.00625000
N        2.72838902       1.47454941       0.13600996
C        2.68570900       2.32617903      -0.93739969
O        2.44022894       2.01200914      -2.09211922
H        0.75514972      -1.28740954       0.00668000
H        0.40824983       0.29318988      -0.71963972
H        0.53669983       0.14048994       1.03743958
H        2.83685899      -0.30025989      -0.94740963
H        2.96365905      -0.45245981       0.81687969
H        2.88326907       1.86189926       1.05746961
H        2.90356898       3.36611867      -0.64262974
