17
Properties=species:S:1:pos:R:3 pbc="F F F"
C        0.58323979       0.95950961       1.02396965
C        1.99997926       1.37448955       0.81017971
C        2.36676908       2.45563912       0.11292996
O        3.68534851       2.80281901      -0.03447999
C        4.06539869       3.81540871      -0.90883970
C        3.32627869       3.97492838      -2.20551896
C        5.15451813       4.53689861      -0.61403978
H        0.35191989       0.95905966       2.09356928
H        0.42918983      -0.05276998       0.63807976
H       -0.12335995       1.62724936       0.52114981
H        2.76968884       0.75012976       1.25683951
H        1.65660942       3.13062882      -0.34039989
H        3.17136860       3.00180888      -2.68263912
H        3.88381839       4.59855795      -2.91314912
H        2.35427928       4.45148849      -2.04626918
H        5.69631767       4.36418819       0.31062987
H        5.52795792       5.30791759      -1.27840948
