16

C    3.07024300  -1.28986900  -0.42251300
C    2.43651900  -0.00364500   0.14724000
C    3.43748000   1.09751600   0.14605600
O    4.38183300   1.13248600   1.02925700
C    3.48702400   2.15689100  -0.88315500
C    2.56057200   2.93530400  -0.01828000
H    2.31352900  -2.08472200  -0.42266400
H    3.92084800  -1.63125700   0.18391800
H    3.41359500  -1.14422700  -1.45597200
H    2.08015000  -0.17675800   1.17681800
H    1.56896200   0.28885500  -0.45888300
H    4.26703100   0.48271800   1.74286900
H    3.04935800   1.84453600  -1.83923400
H    4.48608400   2.59838700  -0.98468200
H    2.96156000   3.58597200   0.76290700
H    1.47688300   2.86238800  -0.13968100