17

C    1.20012500  -0.32186700   0.43214400
C    2.48930300   0.16952900  -0.19878900
C    2.64493800  -0.30523400  -1.72251600
N    2.92629000  -1.65189800  -1.84221800
C    2.60455900   1.70245600  -0.27212900
O    3.71873900   2.10772400  -1.00423800
H    1.12042600   0.07619200   1.45545900
H    1.16500300  -1.41700800   0.50822500
H    0.31813500   0.02266500  -0.12864000
H    3.36615500  -0.22655600   0.34202100
H    3.52542000   0.32929000  -2.00841300
H    1.75705800  -0.03165600  -2.30611100
H    3.77582100  -2.04964900  -1.43834100
H    2.28806900  -2.30765000  -2.29456400
H    2.61994500   2.08025600   0.76565500
H    1.70914300   2.11513600  -0.76290100
H    4.49017600   2.20170100  -0.43445900