14
Properties=species:S:1:pos:R:3 pbc="F F F"
C        1.00504959      -0.07271997      -0.21040992
N        2.42096901       0.01271000       0.12436996
C        2.96069884       1.38567948       0.00000000
C        2.45319915       2.28120899       1.13626957
C        4.40469837       1.38567948       0.00000000
N        5.55570793       1.38567948       0.00000000
H        0.68919975      -1.12012959      -0.17029993
H        0.80638969       0.29581988      -1.22195959
H        0.38292986       0.47514984       0.50266981
H        2.93885875      -0.59991980      -0.50893980
H        2.62772918       1.81246936      -0.95492959
H        2.71241903       1.86835933       2.11779904
H        1.36779940       2.41055918       1.09741962
H        2.89955902       3.28010893       1.07338953
