14
Properties=species:S:1:pos:R:3 pbc="F F F"
C        1.65299940       0.07365997      -1.42147946
C        2.34724927      -0.16348994      -0.30139989
C        3.12192893       0.87882966       0.45851985
C        4.58910847       0.59449977       0.54197979
C        5.58153772       1.30288947      -0.34295988
O        5.37459803       1.69618940       1.02149963
H        1.10542953      -0.72332972      -1.91299927
H        1.60961938       1.06115961      -1.86961937
H        2.34937906      -1.16917956       0.11288995
H        2.71851897       0.92120963       1.47837949
H        2.95161891       1.87192929       0.02131999
H        4.82619810      -0.38770986       0.92842966
H        5.21693802       1.96838927      -1.11561954
H        6.50936747       0.79822969      -0.58068979
