17
Properties=species:S:1:pos:R:3 pbc="F F F"
C        0.89997971       0.08736997       0.03644999
C        2.40922904      -0.02600999       0.01629999
C        3.18400884       0.90986967       0.95240963
O        3.96985865      -0.19799992       1.46611941
C        3.03038883      -1.14598954       0.87380964
C        3.77318859      -2.25297904       0.14104994
O        4.59697866      -2.95880890       1.06634963
H        0.44422984      -0.74307972      -0.51313978
H        0.57769978       1.02044964      -0.43728983
H        0.50406981       0.07349997       1.05793965
H        2.79604888       0.00121000      -1.00981963
H        2.60940909       1.38607943       1.75323939
H        3.81032848       1.65406942       0.45266983
H        2.36666918      -1.54396939       1.65296936
H        4.41829824      -1.85414934      -0.64835978
H        3.07297897      -2.96212888      -0.30954990
H        5.07230806      -2.27070904       1.57228947
