19
Properties=species:S:1:pos:R:3 pbc="F F F"
C        2.67828894      -0.59024978      -0.02028999
C        1.60988939       0.46906981       0.22681990
N        2.17273927       1.65281940       0.91445965
C        1.21221960       2.77610898       0.81910968
C        1.36733949       3.52679873      -0.49770981
N        2.62384892       1.39335942       2.17637920
C        3.67568851       2.08045936       2.47757912
H        2.24501920      -1.43877947      -0.55983979
H        3.09665895      -0.97090966       0.91681963
H        3.49692869      -0.18856993      -0.62668979
H        0.79371971       0.03704998       0.81956965
H        1.19422960       0.74480975      -0.74843967
H        1.40652955       3.49660873       1.62395930
H        0.17931993       2.43432903       0.95783961
H        2.38997912       3.90264869      -0.61427975
H        0.69091976       4.38791847      -0.51938981
H        1.13308966       2.89861894      -1.36226952
H        4.13616848       1.96219933       3.47051883
H        4.15701866       2.79642892       1.78773940
