17

C    1.17425200  -0.43367200   0.13679100
C    2.69681600  -0.21039100   0.01546700
C    2.95152100   1.24771300   0.21812300
C    4.71214900   1.63277000   0.02497700
O    4.78158100   2.96183600  -0.00798000
C    5.39065600   0.92289600   1.05321100
C    5.95643500   0.31646800   1.94250600
H    0.97226300  -1.50444800  -0.00847200
H    0.61745200   0.12508500  -0.62811800
H    0.79861000  -0.14726700   1.12890800
H    3.03397400  -0.53640300  -0.98003400
H    3.22065600  -0.81251000   0.77143600
H    2.76627100   1.63260500   1.23014200
H    2.55105700   1.91609500  -0.55532200
H    4.78063300   1.20483300  -0.98951700
H    5.09288900   3.34371000   0.82925400
H    6.47519300  -0.22136500   2.72246400