21
Properties=species:S:1:pos:R:3 pbc="F F F"
C        2.79479885      -1.33117950       0.02897999
C        2.29285932      -0.16703993       0.87144965
C        2.90168881       1.19159961       0.47162983
C        2.22525907       2.31538916       1.26544952
C        4.43919849       1.26673949       0.59824979
C        4.97733831       1.02984965       1.98279929
C        5.64877796       1.94524932       2.69398904
H        2.25743914      -2.24653912       0.29737991
H        3.86060858      -1.51579940       0.18925993
H        2.63014889      -1.14343965      -1.03662968
H        2.48030901      -0.37915987       1.93045926
H        1.20244956      -0.11372996       0.75796974
H        2.66262889       1.36138952      -0.58741981
H        2.36487913       2.19155908       2.34431911
H        1.14761961       2.33097911       1.06866956
H        2.62764907       3.29257870       0.97778964
H        4.77031851       2.24810910       0.23267990
H        4.90062857       0.53485984      -0.07531998
H        4.82235813       0.04345998       2.41424894
H        5.84056807       2.94123888       2.30714917
H        6.02208805       1.71248937       3.68635869
