17
Properties=species:S:1:pos:R:3 pbc="F F F"
C        0.95760965       0.01331999       0.00117000
C        2.48999906       0.02637999      -0.03539998
C        2.98536897       0.16203995      -1.47539937
C        3.08276892      -1.22160959       0.65170974
O        3.49123859      -0.84922969       1.98827922
C        3.54221869       0.52588981       1.93983924
C        3.02483892       1.09506965       0.85752970
H        0.57702982      -0.09814996       1.02314961
H        0.55966979      -0.81799972      -0.59146976
H        0.54374975       0.94298965      -0.40589985
H        4.07955837       0.20522992      -1.52334940
H        2.60070896       1.07603955      -1.94195926
H        2.65881896      -0.68890977      -2.08330917
H        3.97372866      -1.59655941       0.13263994
H        2.36542916      -2.04641938       0.72359967
H        3.96258855       0.99743962       2.81293893
H        2.95282888       2.15792918       0.68222976
