17
Properties=species:S:1:pos:R:3 pbc="F F F"
C        0.88842964      -0.10175996      -0.02131999
C        2.42021918      -0.07871997      -0.06899998
O        2.89546895      -0.92004967       0.99286962
C        2.94490886      -0.68185973      -1.39131951
O        2.56284904      -2.05500937      -1.50318944
C        2.93122888       1.33464956       0.11205996
C        3.81058860       1.76487923       1.02878964
H        0.44870985       0.46512982      -0.84819967
H        0.51929981       0.32305989       0.91958970
H        0.50731981      -1.12841964      -0.06244998
H        2.55518913      -0.53844982       1.82118928
H        4.03960848      -0.65451974      -1.42384946
H        2.55975914      -0.14449994      -2.26357913
H        2.77644897      -2.44062901      -0.62967980
H        2.54063892       2.06606913      -0.59488976
H        4.26801825       1.09680951       1.75186932
H        4.11202812       2.80795884       1.05961955
