14
Properties=species:S:1:pos:R:3 pbc="F F F"
C        0.94350970      -0.03818998       0.00985000
C        2.43584895      -0.00289000       0.01805999
C        3.13901877       1.13798952       0.00000000
C        4.54501867       1.13798952       0.00000000
C        5.73517752       1.13798952       0.00000000
C        7.17917728       1.13798952       0.00000000
H        0.59561980      -1.07474959      -0.04575998
H        0.54221982       0.49481982      -0.85790968
H        0.53865981       0.40238985       0.92614967
H        2.95211887      -0.96014965       0.03635998
H        2.63103914       2.09790921      -0.01770999
H        7.57326698       2.15882921      -0.01167999
H        7.57320690       0.61741978      -0.87823963
H        7.57320690       0.63765979       0.88992965
