12
Properties=species:S:1:pos:R:3 pbc="F F F"
C        0.67585975       0.08141997      -0.11775996
C        2.10108924       0.01230000       0.32008988
C        3.01906896       0.93458962       0.01351999
O        4.33880806       0.81623971       0.45199981
C        5.18285799       1.82505929       0.08091997
O        4.92887831       2.81711912      -0.58529979
H        0.42613983      -0.80003965      -0.71624970
H        0.47128981       0.97217959      -0.72030973
H        0.01746999       0.10149996       0.75628972
H        2.38852906      -0.84584963       0.92231965
H        2.80861902       1.81534934      -0.58101982
H        6.18041754       1.60220945       0.49209979
