17

C    1.77600300  -0.48712400  -1.00946100
O    2.27200600   0.82305300  -1.33337300
C    3.32167400   1.27270200  -0.72012200
C    3.69636700   2.69265300  -0.91585000
C    3.03854700   2.97060000   0.38503400
C    1.58853200   3.24331300   0.51670100
O    3.72964100   3.04131900   1.49341500
H    1.04468100  -0.73611100  -1.78381000
H    1.29132300  -0.45803600  -0.02393500
H    2.59946100  -1.21438300  -1.01836700
H    3.91702100   0.59855900  -0.09098400
H    3.19065800   3.14540200  -1.77791200
H    4.77993200   2.87439000  -0.93207700
H    1.01940400   2.83153900  -0.32508000
H    1.44800700   4.33874200   0.52294400
H    1.20502800   2.85635700   1.47071800
H    4.68865800   3.04921500   1.35826900