17

C    0.92877300   0.02511700  -0.19500300
C    2.43283200  -0.00943200   0.18582200
C    3.21528200   1.24242000  -0.23662700
C    3.53491400   1.22563600  -1.71462200
O    4.20094400  -0.02085500  -2.09753900
C    3.94540100  -1.11849900  -1.49687300
C    3.05734300  -1.21219300  -0.40575200
H    0.46130400   0.88208000   0.30912100
H    0.41274200  -0.88735400   0.13281700
H    0.78030900   0.13364800  -1.27908000
H    2.47658200  -0.12307700   1.28257500
H    2.64121900   2.15382300  -0.01756300
H    4.15187900   1.31248400   0.33825000
H    4.23733500   2.00853100  -2.01955300
H    2.64587000   1.27935300  -2.36100600
H    4.47772900  -1.98515500  -1.90444100
H    2.82445700  -2.21232600  -0.02794100