16
Properties=species:S:1:pos:R:3 pbc="F F F"
C        2.35852909      -0.50022984      -1.46246946
C        2.46198916       0.01999999      -0.03785999
C        3.23324895       1.33019948      -0.00275000
C        2.51614904       2.59081912      -0.50429982
O        2.82539916       3.29789877       0.72147971
C        3.25103879       2.06274939       1.34559953
H        1.81971931      -1.45210946      -1.48158956
H        3.35161877      -0.65966976      -1.89427924
H        1.82418942       0.20795994      -2.10314918
H        2.97513890      -0.72657973       0.58007979
H        1.45523942       0.14656994       0.37818986
H        4.24254847       1.22556949      -0.42195985
H        1.43414950       2.51147914      -0.64837974
H        2.97174883       3.06928873      -1.37556946
H        4.23658848       2.16000915       1.80882931
H        2.52304888       1.72907937       2.09142923
