14
Properties=species:S:1:pos:R:3 pbc="F F F"
C        1.02571964      -0.00405000      -0.03253999
C        2.51634908      -0.01074000       0.00322000
C        3.32262874      -0.75741971      -1.02883959
O        2.57422900      -1.42927945      -2.05345917
C        3.30187869       0.75215977      -1.02785957
O        4.48516846       1.41514945      -0.55573982
H        0.63859975       0.76311970       0.64414972
H        0.63678974      -0.97299963       0.29338989
H        0.63378978       0.20318992      -1.03322959
H        2.88309884      -0.03306999       1.02286959
H        4.22511864      -1.25254953      -0.68527973
H        2.19928932      -0.81249970      -2.70411897
H        2.75212884       1.25370955      -1.81755936
H        4.96645784       0.89297962       0.10924996
