17

C    1.12935300   0.08387500  -0.01284600
N    2.50523100   0.07823100  -0.38242800
C    3.33299100  -0.64933200  -1.27429700
C    3.41931500   0.87315500  -1.15155800
C    2.79105400   1.77761100  -2.18616500
C    4.61914300   1.43340600  -0.40714300
H    0.89864600   0.99338800   0.55555800
H    0.90403200  -0.82445800   0.56371700
H    0.51521200   0.06297300  -0.93492700
H    2.81591200  -1.15182700  -2.10164100
H    4.15411300  -1.21761200  -0.81819500
H    1.95945900   1.29187000  -2.71478700
H    3.56115200   2.04364900  -2.92438600
H    2.43221700   2.70864300  -1.72438500
H    4.98326700   0.74661300   0.36780500
H    4.34885200   2.38998100   0.06122500
H    5.42649300   1.61268900  -1.12985100