19
Properties=species:S:1:pos:R:3 pbc="F F F"
C        0.81115973       0.03052999       0.11077996
C        2.14623904       0.07860997       0.20673992
C        3.01120901       1.30895948       0.17399994
C        2.31381917       2.67014909       0.13496993
C        3.44076872       3.63621855       0.46880981
C        4.28307819       2.90780902       1.51224935
C        3.90251851       1.42908943       1.41615951
H        0.29088989      -0.92229968       0.14021994
H        0.20186993       0.92075968      -0.00195000
H        2.68139887      -0.86559969       0.30520990
H        3.65972853       1.22807956      -0.70974976
H        1.52806938       2.74254894       0.89695966
H        1.86878932       2.88565874      -0.84132969
H        4.04546833       3.82891846      -0.42566985
H        3.06911874       4.59837866       0.83379972
H        5.35107803       3.06130886       1.32594955
H        4.06859875       3.28572869       2.51806927
H        4.79020834       0.79151970       1.34014952
H        3.36285877       1.13024962       2.32387900
