15

C    1.05432000  -0.02399900   0.18253700
C    2.52061100  -0.03071500  -0.00569700
C    3.25336100   1.09156300  -0.45925800
O    4.54763600   1.13272600  -0.44787600
C    5.24093300   0.04837100   0.20319900
C    4.53420200  -1.25013700  -0.08566000
O    3.14050700  -1.14065900   0.26890000
H    0.60052200  -0.80680700  -0.44592400
H    0.61610500   0.94974800  -0.06385300
H    0.82034800  -0.27584200   1.22930700
H    2.76071100   1.98949600  -0.84092800
H    6.26305900   0.05135500  -0.19142100
H    5.26662500   0.28215300   1.27864600
H    4.94205900  -2.07259700   0.51228700
H    4.57906200  -1.52117600  -1.15163900