16
Properties=species:S:1:pos:R:3 pbc="F F F"
C        1.26386952      -0.28830987       0.18656993
C        2.75082898      -0.46683982      -0.05882998
O        3.37845874       0.80832970       0.07266998
C        4.73200798       0.86413968      -0.10682996
C        5.59078789      -0.12714995      -0.38466987
C        7.05988741       0.08815997      -0.55541980
H        0.73515975      -1.24023962       0.08613997
H        0.83892965       0.42935985      -0.52288979
H        1.08460963       0.11126996       1.19017959
H        2.90634894      -0.86050963      -1.06996953
H        3.15736890      -1.16704965       0.68001974
H        5.05450821       1.89385927       0.01433999
H        5.25022793      -1.15085959      -0.49963981
H        7.33943748       1.14176953      -0.45533985
H        7.37346697      -0.25445992      -1.54626942
H        7.61050701      -0.48463982       0.19702993
