19
Properties=species:S:1:pos:R:3 pbc="F F F"
C        1.01157963       0.03800999       0.16610993
N        2.46419907       0.01158000      -0.00297000
C        2.91585875      -1.28035951      -0.55694979
C        2.63861895      -1.47287941      -2.06648922
N        3.16033888      -0.37238985      -2.89469886
C        2.64664912       0.90925968      -2.38046908
C        2.92283869       1.11318970      -0.87234968
H        0.69895977       0.98322964       0.62416977
H        0.69322973      -0.75697970       0.85005969
H        0.46226984      -0.08213997      -0.77319968
H        2.47697902      -2.11217928       0.00815000
H        3.99920845      -1.35318947      -0.39247987
H        3.10415864      -2.40764904      -2.39855909
H        1.56230938      -1.58273935      -2.24506927
H        4.17570829      -0.36200985      -2.79225898
H        3.11861873       1.72291934      -2.94335890
H        1.57090950       0.97631961      -2.58354902
H        4.00636864       1.22033954      -0.73109972
H        2.48843908       2.06512928      -0.54309976
