17
Properties=species:S:1:pos:R:3 pbc="F F F"
C        0.91216969       0.01342000       0.00995000
C        2.43891907       0.00508000       0.05967998
C        2.92327881      -0.82916969       1.24705958
O        2.91517901      -0.62223977      -1.13797951
C        2.98699880       1.45301938       0.09521996
N        4.44536829       1.48139954      -0.10273996
H        0.55311978       0.55302984      -0.87409967
H        0.48246983       0.48256981       0.90133965
H        0.51733983      -1.00591969      -0.07151998
H        2.62825894      -0.37952983       2.20104933
H        4.01231861      -0.94862968       1.23831964
H        2.50993896      -1.84380925       1.20179951
H        3.80542850      -0.23579991      -1.28115952
H        2.72670913       1.94996929       1.03641963
H        2.54294896       2.03003907      -0.72405970
H        4.90591812       1.09383965       0.72116977
H        4.74936819       2.45471907      -0.15217994
