17

C    0.90622300   0.10731000  -0.12990500
C    2.36939100  -0.09395100  -0.05111600
C    2.89687100  -1.47977400  -0.03634500
C    3.21685100   1.02428700   0.04877600
C    4.70005400   0.96019000   0.20493900
C    4.91464100   0.94308400  -1.23820500
C    4.93971200   0.93642300  -2.45621400
H    0.58997400   1.14062700   0.05596800
H    0.38486200  -0.58019000   0.55563200
H    0.57774900  -0.18747900  -1.14555900
H    2.18554900  -2.18573600  -0.48418200
H    3.02078800  -1.78036100   1.02264700
H    3.87623600  -1.57881400  -0.52345600
H    2.77627700   2.02103000  -0.05883100
H    5.08124700   0.05965900   0.70419700
H    5.11945500   1.85926200   0.67494900
H    5.00933000   0.93779300  -3.53259300