17
Properties=species:S:1:pos:R:3 pbc="F F F"
C        0.89135969      -0.02529999       0.08899996
C        2.39913917       0.00172000       0.01560999
N        2.88977885       0.03803999      -1.36778951
C        3.15645885       1.06962955       0.84471971
C        4.20861864      -0.00073000       1.20153952
C        3.18555880      -1.08173954       0.79330969
H        0.54529977      -0.05679998       1.12833965
H        0.48404980      -0.90617967      -0.41959986
H        0.45376983       0.86610967      -0.37517986
H        3.90336847       0.04028998      -1.47007942
H        2.55400896       0.83992970      -1.90197933
H        2.59904909       1.42259955       1.72145939
H        3.53534865       1.94574928       0.30968988
H        5.10179806       0.02634999       0.56692982
H        4.52304840      -0.02157999       2.24891925
H        3.58852863      -1.92148936       0.21798992
H        2.63955903      -1.49140942       1.65261936
