17
Properties=species:S:1:pos:R:3 pbc="F F F"
C        3.86387849       0.75133973       2.69986916
N        3.51782870       0.47528982       1.31056941
C        3.57299852       1.65136933       0.41277984
C        2.60105896       2.76584888       0.79534972
C        5.01023817       2.18523908       0.24402991
O        5.88707781       1.10550952      -0.07179997
H        3.79681873      -0.17923993       3.27384877
H        3.17910862       1.46817946       3.16301870
H        4.89122820       1.11310947       2.80224895
H        2.57089901       0.09327997       1.28382957
H        3.26458859       1.26809955      -0.56921977
H        2.89005899       3.26007867       1.72794938
H        1.58448946       2.37607908       0.91270965
H        2.57284904       3.53067851       0.01181000
H        5.37556791       2.66940880       1.15496957
H        5.06074810       2.91375899      -0.57118976
H        5.50795794       0.33402988       0.39808986
