11

C    0.88470600   0.55638500   0.38916600
C    2.26518400   0.47374900   0.08521100
O    2.94394100  -0.61994400  -0.16741500
C    2.42959000  -1.95160700  -0.18735200
O    1.30695500  -2.21717200   0.02745300
C    3.01791100   1.65896100   0.04007800
C    3.64469300   2.70371800   0.00820800
H    0.46574700   1.54814900   0.57588100
H    0.24930500  -0.32905300   0.43890600
H    3.27846800  -2.60999000  -0.43380900
H    4.20710100   3.62727400  -0.02176600