17
Properties=species:S:1:pos:R:3 pbc="F F F"
C        1.40779948       2.70519900      -1.34855950
O        1.88987923       2.48674917      -0.02987999
C        2.86947870       1.45149946       0.00430000
O        4.04810858       1.78120923      -0.72370970
C        4.86806822       2.75901914      -0.05482998
C        6.19354773       2.25814915       0.44531983
C        6.13208771       3.12482882      -0.77867973
H        0.60014981       3.44164872      -1.30081952
H        1.00739968       1.78031933      -1.77618933
H        2.19966936       3.10529876      -1.98865926
H        2.44984913       0.52712983      -0.40840986
H        3.12434888       1.25388956       1.05169964
H        4.37909842       3.55769873       0.49786982
H        6.42696762       1.20921957       0.30960989
H        6.58684778       2.69114900       1.35632944
H        6.48200750       4.14761829      -0.69871968
H        6.31551743       2.66400909      -1.74242938
