15
Properties=species:S:1:pos:R:3 pbc="F F F"
N        0.99999964       0.00000000       0.00000000
C        2.15100908       0.00000000       0.00000000
C        3.59500861       0.00000000       0.00000000
C        4.15940809       1.14697957       0.82823968
C        5.56802797       0.68268973       1.13395953
C        5.43110800      -0.82170969       1.28734958
N        4.17305851      -1.19867957       0.64224976
H        3.98039842       0.06847998      -1.02501965
H        3.60086846       1.28690946       1.76325929
H        4.15080833       2.09902930       0.28707990
H        6.22677755       0.91377968       0.28874987
H        5.97688770       1.16018963       2.02883911
H        6.28512764      -1.34548950       0.84379971
H        5.37899780      -1.09807956       2.34441900
H        4.30661821      -1.94264936      -0.04037999
