16
Properties=species:S:1:pos:R:3 pbc="F F F"
C        1.04316962      -0.50697982       0.50109982
C        2.30543923      -0.27089992      -0.32699987
C        2.81983900      -1.58318937      -0.91186965
N        1.99717927       0.66051972      -1.39976943
C        2.90565872       1.41172945      -2.08156919
N        4.13026857       1.65222943      -1.79077935
H        0.67002976       0.43610984       0.91355968
H        1.24706960      -1.18497956       1.33543944
H        0.24227992      -0.94294965      -0.10519996
H        3.06570888       0.15336993       0.33808988
H        2.08532929      -2.03288937      -1.58953941
H        3.03696895      -2.30506897      -0.11765996
H        3.74063849      -1.42409945      -1.48264945
H        1.13704956       0.45943984      -1.90036929
H        2.47590923       1.85703933      -2.99530888
H        4.38020849       1.19361961      -0.91453964
