11
Properties=species:S:1:pos:R:3 pbc="F F F"
C        1.78756928      -0.73912972      -0.78645968
C        2.65766883      -0.21470992       0.08633997
C        3.18313885       1.18754947       0.01931999
C        4.69699812       1.23127949      -0.05020998
O        5.45171785       0.33252987       0.31077990
H        1.45548952      -1.76836932      -0.68389970
H        1.39001954      -0.16705993      -1.61880934
H        3.02879882      -0.83769965       0.89992964
H        2.87097883       1.75277936       0.90370965
H        2.80063915       1.70602930      -0.86627966
H        5.11280823       2.19327927      -0.39731985
