19

C    0.95088800  -0.04297300  -0.04070600
C    2.48016600   0.00599900  -0.02457200
C    3.09481200  -1.20190200  -0.76653200
C    3.41773300  -0.71660200  -2.11051500
C    3.36154400   0.69885800  -2.16608700
C    3.59598400   1.52354000  -3.35645900
C    3.02001300   1.21218100  -0.82234300
H    0.52648500   0.84296700   0.45180000
H    0.58240700  -0.93000100   0.49310200
H    0.56179500  -0.08044600  -1.07184100
H    2.82799700   0.04143200   1.01644100
H    2.48207800  -2.12081800  -0.77661100
H    4.05438900  -1.53642700  -0.30618500
H    3.69482400  -1.34887500  -2.95944900
H    4.09109200   2.47150600  -3.09764400
H    2.60322200   1.80752800  -3.76120900
H    4.14153100   0.99514900  -4.14828800
H    3.97333000   1.59567600  -0.39378600
H    2.36099000   2.09632500  -0.85579800