15
Properties=species:S:1:pos:R:3 pbc="F F F"
C        2.61536908      -0.72967976      -1.16468954
N        2.36267900       0.03338999       0.05224998
C        2.96069884       1.38567948       0.00000000
C        2.45206904       2.14502931       1.20411956
C        1.70596945       3.25941873       1.15449953
C        4.40469837       1.38567948       0.00000000
N        5.55570793       1.38567948       0.00000000
H        2.09443927      -1.69037938      -1.10199964
H        3.68054867      -0.94165963      -1.30250955
H        2.23585916      -0.20827992      -2.04924917
H        2.75471902      -0.47115982       0.84706968
H        2.59753919       1.88711929      -0.90661967
H        2.71612906       1.74761927       2.18249917
H        1.39945948       3.70597863       0.21372992
H        1.37587953       3.74503851       2.06848907
