13

C    0.42456400   1.44015000   0.23848600
C    1.35510000   0.30729600  -0.17237300
O    0.88281500  -0.86201500   0.59072300
N   -0.31413200  -1.20237100   0.32545200
C   -1.24576400  -0.41167100  -0.05860200
C   -1.04529900   1.06915100   0.01335900
H    0.69065100   2.32449000  -0.36070300
H    0.60940700   1.69747900   1.29084500
H    2.39427300   0.43803400   0.14404600
H    1.30193300   0.04445800  -1.23984100
H   -2.16138800  -0.87762900  -0.43894000
H   -1.44449000   1.44703700  -0.94610800
H   -1.70776100   1.48808900   0.78902500