15
Properties=species:S:1:pos:R:3 pbc="F F F"
C        2.07454920      -0.49859983       1.31241953
C        2.33156919       0.01760999      -0.09262996
C        2.87475896       1.41874945      -0.05390998
N        2.23632932       2.54855919      -0.03569999
N        0.88409966       2.46486926      -0.06267998
C        4.30185843       1.62522948       0.01050000
C        5.48978806       1.79277933       0.06551997
H        1.68949938      -1.52224934       1.27699959
H        1.34230947       0.12405995       1.83643925
H        2.99441886      -0.49978980       1.90657926
H        1.40886950      -0.01227000      -0.68056977
H        3.05615878      -0.63302976      -0.59558976
H        0.50507981       3.37333870      -0.34581986
H        0.52266979       2.33534908       0.88652968
H        6.54189730       1.95336926       0.11344995
