18
Properties=species:S:1:pos:R:3 pbc="F F F"
C        1.17706954      -0.53821981       0.16297995
C        2.65175915      -0.79180968      -0.10698996
N        3.38408875       0.47374982      -0.08644997
C        4.81394815       0.25147992      -0.35496986
C        5.60108805       1.57600951      -0.36239988
N        5.33976793       2.39331913       0.83078969
H        0.62341976      -1.48294950       0.14864995
H        0.74246973       0.11805996      -0.59890974
H        1.02579963      -0.07411998       1.14327955
H        2.75440884      -1.27444947      -1.08582962
H        3.04462886      -1.47662938       0.65357971
H        3.31308866       0.88312966       0.84699965
H        4.94669819      -0.23739991      -1.32648957
H        5.23481798      -0.40702984       0.41555986
H        5.33200788       2.15910935      -1.25053942
H        6.67288780       1.35950947      -0.42246985
H        4.36506844       2.69369912       0.78600973
H        5.88982821       3.24926901       0.76448971
