17
Properties=species:S:1:pos:R:3 pbc="F F F"
C        1.09462953      -0.59264982       0.00037000
C        2.39210916       0.12904996       0.19145992
C        2.62155914       1.45899940       0.21200992
C        1.51389933       2.47959900       0.08132997
N        3.91672850       1.93989933       0.37422985
C        4.38885832       3.21552873       0.39993984
N        5.61834764       3.56434870       0.55216980
H        1.23806953      -1.41055954      -0.71306974
H        0.29438990       0.03515999      -0.39462984
H        0.76628971      -1.02568960       0.94979966
H        3.23788881      -0.54629976       0.31545988
H        0.51300979       2.04389930       0.06137998
H        1.63929939       3.05810881      -0.83997965
H        1.53043950       3.16798878       0.93351960
H        4.61538792       1.21439958       0.47454983
H        3.62376857       3.99821854       0.27430987
H        6.21101761       2.73885894       0.65581971
