17
Properties=species:S:1:pos:R:3 pbc="F F F"
C        1.04858959       0.03146999       0.26125991
C        2.54421902      -0.10426997       0.01742999
N        3.22599888       1.11023962       0.46481982
C        4.68611813       1.05163956       0.24245991
C        5.25017786       2.45544910       0.47004983
C        5.38572836       0.08932997       1.12873960
N        5.92192745      -0.66739970       1.83009934
H        0.52681977      -0.86479968      -0.08944996
H        0.63573980       0.89297962      -0.27449989
H        0.82986969       0.15289994       1.32763958
H        2.71517897      -0.26034990      -1.05368960
H        2.91068888      -0.98605961       0.55423981
H        3.04047894       1.26467943       1.45702946
H        4.88007784       0.78380972      -0.80366969
H        5.09410810       2.79398894       1.50146937
H        4.77860785       3.18249869      -0.20086992
H        6.32907772       2.47784901       0.27701989
