18
Properties=species:S:1:pos:R:3 pbc="F F F"
N        0.99035966       0.04296998       0.01775999
C        2.44328904       0.00104000       0.01994999
C        3.00926876      -1.12189960       0.90488970
C        3.85047865      -0.27899989       1.86539936
C        4.54243803       0.79357970       0.96663964
C        3.04987884       1.20479953       0.74646974
C        2.92234898       0.90596968       2.27814913
H        0.62429976      -0.81064969      -0.40311986
H        0.67103970       0.81185967      -0.56945980
H        2.81586909      -0.07687997      -1.00731969
H        3.62221861      -1.82034922       0.32569990
H        2.23994923      -1.69192934       1.43585956
H        4.43762827      -0.77580971       2.63632894
H        5.08884811       0.42555982       0.09244996
H        5.17083788       1.52472949       1.48860943
H        2.84401894       2.21312904       0.38805985
H        3.36358881       1.65099943       2.95043874
H        1.92903936       0.64436978       2.65452886
