17
Properties=species:S:1:pos:R:3 pbc="F F F"
C        2.29215932      -0.52911979      -1.51555943
C        2.56893921       0.05034998      -0.13930994
O        3.33396864      -0.89594966       0.60863978
C        3.36092877       1.35063958      -0.24947990
C        2.59164906       2.62558913      -0.61909980
C        3.18159866       3.19109869       0.66906977
O        3.64830852       1.88196933       1.08038962
H        1.70009947       0.15887994      -2.12730932
H        1.75210929      -1.47813952      -1.43099952
H        3.22656870      -0.74288970      -2.04710937
H        1.62592936       0.20828992       0.39548987
H        3.65629864      -0.40956986       1.39291954
H        4.30132866       1.22928953      -0.80406970
H        1.50217950       2.53638887      -0.61302978
H        2.92024899       3.11814880      -1.53680944
H        4.01732826       3.88610864       0.54025978
H        2.45559907       3.60447860       1.37454939
