16

C    0.86140100   0.02327600  -0.11035900
N    2.23546900   0.41267000  -0.22960600
C    3.51907900  -0.31780800  -0.41906700
C    4.20962400   1.03614700  -0.10520300
C    2.94706700   1.57519500  -0.82903700
C    3.08076800   0.95613300  -2.22479800
C    3.46313500  -0.30925000  -1.95075300
H    0.27504200   0.88445800   0.23626700
H    0.78652700  -0.80812800   0.60291900
H    0.46822100  -0.30733100  -1.08802900
H    3.67933100  -1.25099800   0.13115000
H    4.23274900   1.27538000   0.96716900
H    5.17552900   1.22299400  -0.59013800
H    2.52285100   2.57622300  -0.69771300
H    2.84961500   1.43372100  -3.17632900
H    3.63206400  -1.15568700  -2.61553900