15
Properties=species:S:1:pos:R:3 pbc="F F F"
C        0.99999964       0.00000000       0.00000000
C        2.44399905       0.00000000       0.00000000
C        3.63415861       0.00000000       0.00000000
C        5.07815790       0.00000000       0.00000000
C        5.56017780       1.36116946       0.00000000
C        5.95745802       2.48306894       0.00000000
C        6.43947744       3.84423852       0.00000000
H        0.60589981       1.02126956       0.01167999
H        0.60578978      -0.52069980       0.87859964
H        0.60578978      -0.50045979      -0.89026970
H        5.45591831      -0.53451979      -0.87855965
H        5.45591831      -0.53451979       0.87855965
H        5.64535809       4.54364824      -0.28161988
H        7.26356745       3.97060847      -0.70939976
H        6.80380774       4.13330841       0.99075967
