17
Properties=species:S:1:pos:R:3 pbc="F F F"
C        1.01659966      -0.05419998      -0.07619997
C        2.49809909       0.06367998      -0.08944996
O        3.11319876      -0.31002989      -1.32335949
C        3.19468880       1.08215964      -0.96250963
C        4.59145832       1.60602939      -0.65722978
C        5.85627794       0.93198967      -1.13539958
C        5.45022821       2.24996924      -1.72106946
H        0.59298974       0.61892980       0.67525977
H        0.72202975      -1.07721961       0.17716993
H        0.57496977       0.19662993      -1.04608953
H        2.96578884      -0.24999991       0.83353966
H        2.55476904       1.76584935      -1.51402950
H        4.66187811       2.07287931       0.32657990
H        5.76475811       0.05072998      -1.76017940
H        6.70434713       0.91020966      -0.46156985
H        6.02394772       3.12763882      -1.44738936
H        5.08557796       2.25597930      -2.74184895
