15
Properties=species:S:1:pos:R:3 pbc="F F F"
C        0.99999964       0.00000000       0.00000000
C        2.44399905       0.00000000       0.00000000
C        3.63415861       0.00000000       0.00000000
C        5.04015779       0.00000000       0.00000000
C        5.68916798      -1.17333961      -0.07603997
C        5.78023815       1.31442952       0.04926998
O        5.67429781       1.89692926       1.34213948
H        0.60602981       1.02087963       0.01202000
H        0.60598981      -0.52080983       0.87809968
H        0.60596979      -0.50002980      -0.89008969
H        5.15567827      -2.11856914      -0.12177996
H        6.77358723      -1.21996951      -0.08322997
H        5.37056828       2.01615930      -0.68484974
H        6.84461737       1.19015956      -0.17494994
H        4.74667788       1.80693936       1.62008929
