12
Properties=species:S:1:pos:R:3 pbc="F F F"
O        1.03548956      -0.04922998      -0.10563996
C        2.46345925       0.00434000       0.03518999
C        3.23490882      -0.70682979      -1.03538966
C        3.20109892       0.79829973      -1.01294959
C        4.38593817       1.50900948      -0.63154978
C        5.37979794       2.10619926      -0.31506988
H        0.60644978       0.62836975       0.44538984
H        2.87071896      -0.03185999       1.04111958
H        2.67484879      -1.21377957      -1.81241941
H        4.14658833      -1.21565962      -0.74564976
H        2.59778905       1.27746952      -1.77847934
H        6.26158762       2.63417888      -0.03711999
