15
Properties=species:S:1:pos:R:3 pbc="F F F"
N        0.99999964       0.00000000       0.00000000
C        2.15100908       0.00000000       0.00000000
C        3.59500861       0.00000000       0.00000000
C        4.19493818       1.12390959       0.82912970
C        5.57779789       0.58805978       1.14196956
N        5.34245777      -0.82432973       1.43240952
C        4.19507837      -1.25934947       0.62219977
H        3.96484852       0.09325996      -1.03003967
H        3.62869859       1.28986943       1.75575936
H        4.23117828       2.07147908       0.28207988
H        6.23706770       0.69077975       0.27163991
H        6.03789759       1.10153961       1.99056923
H        6.17180777      -1.38561952       1.24037945
H        4.51924849      -1.95531929      -0.16085993
H        3.48956871      -1.79383934       1.26841950
