17
Properties=species:S:1:pos:R:3 pbc="F F F"
C        1.16308951      -0.31867987       0.05476998
N        2.60625887      -0.15622994      -0.08425997
C        2.97817874       1.25689948      -0.03000999
C        4.50135803       1.41508949      -0.08560997
C        5.24234819       0.74589974       1.07490957
C        4.93388796       1.37847948       2.36458921
N        4.69979858       1.89345932       3.37735891
H        0.91256964      -1.38356948       0.02512999
H        0.62445974       0.17775993      -0.75895971
H        0.80972970       0.07602997       1.01286960
H        2.89480877      -0.55284977      -0.97921968
H        2.59199905       1.72127938       0.88481969
H        2.53731894       1.79132926      -0.88023967
H        4.74023819       2.48629904      -0.10592996
H        4.87366819       0.99543965      -1.02908957
H        6.32044744       0.82819968       0.89188963
H        5.01716805      -0.32516986       1.11709964
