15
Properties=species:S:1:pos:R:3 pbc="F F F"
C        2.08745909      -0.01952999       0.42564985
C        2.08601928       1.22399950      -0.07018997
O        3.10822892       2.12571931      -0.13762996
C        4.36875868       1.72887933       0.40999985
C        5.35699844       2.85332894       0.15266994
C        6.71485758       2.54937887       0.71995974
O        6.99491739       1.53072941       1.34336948
H        1.17963958      -0.61346978       0.39853984
H        2.96401906      -0.48264980       0.86168969
H        1.19356954       1.66273940      -0.50369984
H        4.72116852       0.81026965      -0.07522997
H        4.26551819       1.55412948       1.48823941
H        4.99804783       3.78947854       0.59384978
H        5.46303797       3.02527905      -0.92413968
H        7.47971725       3.32493877       0.54250979
