14
Properties=species:S:1:pos:R:3 pbc="F F F"
C       -1.27073944       0.02601999      -0.48235983
C       -0.36123985      -0.54544979       0.68816972
C       -0.62295979       0.89473963       1.30557954
C       -0.29987991       1.25329947      -0.20801993
C        1.07376957       0.71563971      -0.44447985
C        1.03330958      -0.48547983       0.15376994
H       -1.18155956      -0.46308982      -1.45802951
H       -2.33317924       0.17388994      -0.25753990
H       -0.67253977      -1.43424952       1.23278952
H       -1.63861942       1.10534954       1.65953946
H        0.09213997       1.24498963       2.05736923
H       -0.54814982       2.23895931      -0.59699982
H        1.89004934       1.18479967      -0.96817964
H        1.80813932      -1.22925949       0.23442993
