8
Properties=species:S:1:pos:R:3 pbc="F F F"
C        0.97866964      -0.01410999       0.02378999
C        2.31382918       0.00706000      -0.02773999
C        3.05105901       1.28606951      -0.01284000
O        4.27417803       1.31614947      -0.05967998
H        0.44565985      -0.96037966       0.01228000
H        0.38103986       0.89118969       0.07812997
H        2.91130900      -0.89556962      -0.08198997
H        2.44099903       2.20265913       0.04238999
