13
Properties=species:S:1:pos:R:3 pbc="F F F"
N        0.88250965       0.31061989       0.36033985
N        2.21569920       0.08339997       0.39849985
C        2.91741896       1.15420961       0.20051992
C        4.39192867       1.11398947       0.20906992
C        5.08542824       2.23854923       0.00000000
C        6.49142742       2.23854923       0.00000000
C        7.68158722       2.23854923       0.00000000
H        0.39509985      -0.58707976       0.29101989
H        0.56251979       0.70246971       1.25021946
H        2.45023894       2.13970923       0.01448999
H        4.85685778       0.15141994       0.38672987
H        4.58397818       3.18532896      -0.17758994
H        8.74691677       2.23638916      -0.00033000
