17
Properties=species:S:1:pos:R:3 pbc="F F F"
C        1.03197956      -0.00328000      -0.11849996
C        2.56168890      -0.06600998      -0.01453999
C        2.93506885      -0.78041971       1.29691947
C        3.15378881      -0.85774964      -1.18807960
C        3.14275885       1.35211945       0.00532000
O        2.87756872       2.08108926      -1.10320961
O        3.79543877       1.82033932       0.92608964
H        0.70393974       0.43007985      -1.06934965
H        0.60841978       0.61399972       0.68215972
H        0.58883977      -1.00281966      -0.04479998
H        2.53823900      -0.24565990       2.16788912
H        4.02269840      -0.84340966       1.41962945
H        2.53680897      -1.80096936       1.32211959
H        2.85852885      -0.43760985      -2.15547919
H        2.82046890      -1.90152931      -1.16973960
H        4.24931860      -0.85221970      -1.15323949
H        2.35079908       1.62279940      -1.78207934
