18
Properties=species:S:1:pos:R:3 pbc="F F F"
C        0.87074971       1.15048957      -1.25201952
C        2.35704899       0.98871964      -1.24249959
C        3.13888884       1.33451951      -0.20665991
C        4.64382839       1.20288944      -0.10546996
C        5.31998777       0.46931985      -1.26660955
C        5.26916790       2.58893895       0.06803998
H        0.57332981       1.80666935      -2.07567930
H        0.49351981       1.58129942      -0.31922990
H        0.39162984       0.17738993      -1.39672947
H        2.78811884       0.56616980      -2.14596915
H        2.66199899       1.75327933       0.67986977
H        4.84905863       0.62550974       0.80551970
H        5.19674826       1.00802970      -2.21276927
H        4.91050816      -0.53945982      -1.38841951
H        6.39509773       0.36620986      -1.08179963
H        5.09807825       3.21774864      -0.81327969
H        6.35106802       2.51076889       0.22175992
H        4.84882832       3.10682893       0.93766963
