17
Properties=species:S:1:pos:R:3 pbc="F F F"
N        1.62909949      -0.87118971      -0.53408974
C        2.98490906      -0.47701982      -0.11684995
C        3.19155884       1.05647957      -0.24458991
N        2.02949929       1.76499939       0.33921987
C        4.50361824       1.52291942       0.41075984
C        5.69129801       0.97249961      -0.26548991
C        6.66252756       0.52834982      -0.81524968
H        1.55325937      -1.88733935      -0.48736981
H        1.50466943      -0.62711978      -1.51754951
H        3.71634865      -1.01356959      -0.73035973
H        3.12452888      -0.79047972       0.92411965
H        3.21329880       1.31099951      -1.31248951
H        2.00513935       1.57713938       1.34205949
H        1.20187950       1.26275945      -0.00619000
H        4.51977825       1.23909950       1.47031951
H        4.55953789       2.61837888       0.37750986
H        7.52719688       0.14070994      -1.30294955
