15
Properties=species:S:1:pos:R:3 pbc="F F F"
C        0.91899967      -0.00397000       0.08144997
C        2.44017911      -0.00213000       0.08031996
O        2.92065883      -0.00228000       1.41165948
C        3.03132892       1.16370952      -0.66195977
C        3.80750871       0.72133976      -1.66442931
C        3.80853868      -0.72122973      -1.66443932
C        3.03393888      -1.16571963      -0.66333979
H        0.50380981      -0.00235000      -0.93243963
H        0.52940977       0.87230968       0.61268973
H        0.53170979      -0.88360965       0.60882980
H        3.89118862      -0.00079000       1.35096943
H        2.84768891       2.19848919      -0.41395983
H        4.35838795       1.33069944      -2.36531925
H        4.36022806      -1.32899952      -2.36541915
H        2.85231900      -2.20050931      -0.41599986
