19
Properties=species:S:1:pos:R:3 pbc="F F F"
C        0.90160966      -0.09874997       0.14065994
C        2.41689897      -0.02208999      -0.03156999
C        2.84308910      -0.03866998      -1.50293946
O        2.38355923       1.13643956      -2.16398907
C        3.10090876       1.07496965       0.83981967
C        4.18361855       0.04404999       1.20844948
C        3.18073869      -1.06601954       0.83817965
H        0.61889976      -0.15176994       1.19828951
H        0.49603984      -0.98771960      -0.35472986
H        0.40824983       0.78265971      -0.28217989
H        2.44374895      -0.91490960      -2.02592921
H        3.93258858      -0.06269998      -1.60745943
H        1.42017949       1.05821955      -2.26732922
H        2.50898910       1.40373945       1.70302939
H        3.46267891       1.96235931       0.31268987
H        5.06619787       0.07763997       0.56016982
H        4.51235819       0.05541998       2.25105906
H        3.60689878      -1.92289937       0.30840990
H        2.61961913      -1.44032943       1.70318937
