18
Properties=species:S:1:pos:R:3 pbc="F F F"
C        3.04876876      -1.46033943       1.27806962
C        2.79424906      -0.60386980       0.06804997
C        2.11519933      -1.07445955      -0.99328965
C        3.31179881       0.81660968       0.13118994
N        4.77299833       0.84457970       0.26446989
C        5.47407770       1.18543947      -0.97058964
C        5.33656788       2.18568921       0.14767994
H        4.12100840      -1.62734938       1.41852951
H        2.56967902      -2.44141912       1.19364953
H        2.65004897      -0.97605968       2.17541933
H        1.74167931      -2.09332919      -1.01882958
H        1.92290926      -0.45772982      -1.86467934
H        2.86781907       1.30033958       1.01213956
H        2.95404887       1.39066947      -0.73562974
H        4.89994812       1.33496952      -1.87684929
H        6.43556738       0.70687973      -1.11094952
H        6.20558786       2.38267899       0.76411968
H        4.66100788       3.02197909       0.01915999
