19
Properties=species:S:1:pos:R:3 pbc="F F F"
C        2.14174914      -0.74289972      -1.29429948
N        1.81357932       0.36059985      -0.39933985
C        3.00310898       1.12111950       0.06583998
C        3.79927874       0.43979982       1.15684950
C        3.75176859       1.98806930      -0.92114967
C        2.86869884       2.64357901       0.09570996
N        3.45895863       3.46764874       1.15097952
H        2.64187908      -0.39126983      -2.20185924
H        1.22029960      -1.25136948      -1.59462941
H        2.77691889      -1.48532939      -0.80275965
H        1.15135956       0.97669965      -0.87034971
H        4.71223831       0.98640966       1.41401947
H        4.10933828      -0.56345981       0.84736967
H        3.19316888       0.34591988       2.06427932
H        3.42342877       2.01295924      -1.95386922
H        4.82614803       2.08401918      -0.81636965
H        1.93520927       3.05742884      -0.28200990
H        4.40424824       3.16925859       1.38317943
H        2.91623878       3.37435889       2.00975919
