11
Properties=species:S:1:pos:R:3 pbc="F F F"
O        1.02775967      -0.06719998       0.01446999
C        2.22984910       0.12979995       0.03351999
C        2.88778901       1.45833945       0.03073999
C        4.21101856       1.22979951       0.03244999
C        4.59793854      -0.18699992       0.06116998
O        4.15065861      -1.07184958       1.09593964
C        3.26663899      -0.92913967      -0.02271999
H        2.35385895       2.39100909       0.03019999
H        4.95245838       2.01882935       0.03898999
H        5.40637779      -0.50302982      -0.58562976
H        3.15269876      -1.74164927      -0.72479975
