15
Properties=species:S:1:pos:R:3 pbc="F F F"
C        1.44067943      -0.31951988      -1.05214965
N        2.78672910      -0.25827992      -0.49063981
N        3.29183865       0.99418968      -0.34843984
C        4.55690813       1.06343961      -0.07288997
C        5.53854799      -0.05213998       0.09255996
C        4.99223804       2.42949915       0.07333997
C        5.35783815       3.56769848       0.19492993
H        1.13082957      -1.36345947      -1.15712965
H        1.41373956       0.14156996      -2.04447913
H        0.72170973       0.19122992      -0.40387985
H        2.77595901      -0.74686974       0.40855986
H        5.22545815      -0.69936973       0.91669965
H        6.53737783       0.33571985       0.31120989
H        5.58406830      -0.64129978      -0.82780969
H        5.67010784       4.58066845       0.29798988
