22

C    1.74055600   0.08280800  -0.81514100
C    3.24505900   0.08840400  -0.60795100
N    3.66638700   0.94240400   0.46672500
C    4.91946900   1.60291400   0.54333400
C    4.80136900   3.12685100   0.15382900
C    6.17488000   3.76156000   0.35529500
C    4.27529000   3.30099000  -1.26612000
H    1.49353200  -0.62120000  -1.62012500
H    1.37502200   1.07663100  -1.10911400
H    1.20704500  -0.24646700   0.08868100
H    3.80776100   0.38392200  -1.50833400
H    3.61067900  -0.92989300  -0.34882000
H    2.99193000   1.11768100   1.21867300
H    5.62989800   1.10697400  -0.13416800
H    5.28049200   1.54893200   1.58306900
H    4.09127300   3.57921400   0.86632700
H    6.92158600   3.32574300  -0.32594500
H    6.53563200   3.64927300   1.38764100
H    6.11207800   4.83738000   0.13851800
H    4.92628300   2.80114700  -2.00146200
H    4.25528000   4.36943500  -1.52347300
H    3.24922600   2.92191300  -1.38892500