17

C    2.92452700  -1.72377000  -1.33503300
C    2.92062600  -0.81484100  -0.17479500
C    2.52488600  -1.27720600   1.09982500
C    3.33433900   0.58674200  -0.33218700
C    4.82738200   0.67793300   0.07789300
C    5.27718000   2.13731600  -0.02086400
O    4.53951100   3.03139900  -0.29487400
H    1.97849300  -1.53456200  -1.88579000
H    2.94652200  -2.78711200  -1.06596700
H    3.72712400  -1.47598800  -2.04562300
H    2.18085400  -2.30560200   1.24555000
H    2.53739600  -0.61040400   1.96759700
H    2.76651900   1.26834300   0.32197600
H    3.23161700   0.93014900  -1.37116300
H    5.47797300   0.06056800  -0.56313800
H    5.00918000   0.35219200   1.11691400
H    6.36088800   2.29587200   0.19448000