17
Properties=species:S:1:pos:R:3 pbc="F F F"
C        5.14224815      -0.87079966      -0.07240997
C        3.81372857      -0.25709990      -0.48397982
C        3.53231883       1.00133967       0.28485990
C        3.63115859       2.22835898      -0.24621990
N        3.38586879       3.41308856       0.39651984
C        3.52594852       4.69620848      -0.05051998
N        3.96582866       5.13130808      -1.17663956
H        5.32011795      -1.79656935      -0.62889975
H        5.15748787      -1.10927963       0.99642968
H        5.97284794      -0.18727992      -0.28110990
H        3.00384903      -0.97183967      -0.29881990
H        3.82216859      -0.06360997      -1.56287944
H        3.23477888       0.87800968       1.32255948
H        3.93715858       2.34081912      -1.28243959
H        3.06096888       3.31018877       1.35278952
H        3.20466876       5.43141794       0.70723975
H        4.23533821       4.34414816      -1.76851928
