17
Properties=species:S:1:pos:R:3 pbc="F F F"
C        0.93510962      -0.16161995      -0.22944991
C        2.43702912       0.04948998      -0.03383999
C        3.20830870      -0.75287974      -1.00504959
C        3.83522844      -1.41140950      -1.79025936
C        2.83460879       1.51591945      -0.12706995
C        2.55051899       2.24950933      -1.41244948
C        3.41999865       2.14891911       0.90598965
H        0.35690987       0.45354983       0.46874982
H        0.66725975      -1.20979953      -0.05184998
H        0.61297977       0.08325997      -1.24799955
H        2.68311906      -0.32404989       0.96969962
H        4.39387846      -1.99273920      -2.48696899
H        1.47503948       2.28104901      -1.61121941
H        3.04944873       1.76617932      -2.25791907
H        2.90433884       3.28584886      -1.37699950
H        3.63568878       1.63849938       1.83995926
H        3.70596862       3.19483876       0.84487969
