20

C    1.03037200   0.55706300   0.37207200
C    2.39789000   0.44503400  -0.27196800
N    3.39470100   1.26616900   0.34785200
C    4.80600900   1.19300700   0.09188200
C    5.35205800   2.56993400  -0.21513200
C    5.64632800   3.53837200   0.90902600
C    6.77302800   2.89540400   0.16608000
H    0.32258400  -0.07934900  -0.17430000
H    0.64854400   1.58772800   0.33302100
H    1.05176300   0.21655300   1.41671300
H    2.37285900   0.75026900  -1.34184300
H    2.78995100  -0.58907600  -0.28771700
H    3.08696200   2.02801600   0.96401500
H    4.98033700   0.46168900  -0.71095100
H    5.28057400   0.79776700   1.01365000
H    4.98026700   2.98935800  -1.15485200
H    5.46820000   3.21076100   1.93829000
H    5.43518000   4.59476100   0.73218100
H    7.34675900   3.49699500  -0.54116100
H    7.35645200   2.12576000   0.67802000