14
Properties=species:S:1:pos:R:3 pbc="F F F"
O        2.13859940      -0.39635986      -1.32946944
C        2.32350922       0.04701998       0.00883000
C        3.11428881       1.33613944      -0.01675999
C        2.34969902       2.58142900      -0.47283983
O        2.45580888       3.18515873       0.83755970
C        3.22145867       2.06213927       1.32606959
H        1.63553941      -1.22851956      -1.28945959
H        2.86924887      -0.72879976       0.55507982
H        1.34005952       0.17720993       0.47291982
H        4.08614826       1.22191954      -0.51243979
H        1.30404949       2.43336916      -0.75832969
H        2.85527897       3.18543887      -1.23189950
H        4.23340845       2.36361933       1.61211944
H        2.72784901       1.58391941       2.17729902
