14
Properties=species:S:1:pos:R:3 pbc="F F F"
C        1.03093958       0.00367000      -0.12578996
C        2.53484893      -0.02896999      -0.02362999
C        3.11738873      -1.41500950      -0.05032998
C        3.22324872       1.12384963       0.08061997
C        4.69261789       1.25789952       0.18295993
O        5.21974802       2.36061907       0.28060991
H        0.63374978       1.02419960      -0.10822996
H        0.58221978      -0.54159981       0.71099973
H        0.70462978      -0.46321982      -1.06112969
H        2.69690895      -2.01409936       0.76403970
H        4.20266867      -1.43976951       0.05882998
H        2.87240887      -1.90560937      -0.99915963
H        2.70800900       2.08069921       0.09379996
H        5.28661823       0.33454987       0.16592993
