15
Properties=species:S:1:pos:R:3 pbc="F F F"
C        1.00178957       0.00145000      -0.04085999
C        2.52083898       0.11578996      -0.03891999
C        2.97082901       1.44943953       0.53395981
C        3.81102872       1.24337959       1.56269932
C        4.06442881      -0.18043992       1.83029926
O        4.58067846      -1.06235969       0.82045972
C        3.15894866      -0.92484963       0.86884964
H        0.69058973      -0.97378963      -0.43011984
H        0.55022979       0.77698970      -0.66845977
H        0.58853978       0.09867996       0.96947962
H        2.90300894       0.00418000      -1.06046951
H        2.67013884       2.41309905       0.15065995
H        4.28650856       2.03053927       2.13228917
H        4.09606838      -0.49788982       2.86436892
H        2.54965901      -1.74715936       1.20520949
