19
Properties=species:S:1:pos:R:3 pbc="F F F"
N        2.01101923       2.05037928       2.51196909
C        3.31829858       2.05177927       1.86371934
C        3.15197873       2.08117914       0.34495986
C        4.48983812       2.04972935      -0.39772987
C        5.31140804       3.28225875      -0.15837994
C        6.49717760       3.25211883       0.77345973
N        6.67966795       3.31163883      -0.67308974
H        2.13330913       1.98772931       3.52203870
H        1.49110949       1.21768963       2.23647904
H        3.87735844       1.16041958       2.16892934
H        3.87383842       2.93003893       2.20716906
H        2.58944917       2.97606874       0.05043998
H        2.56135917       1.21351957       0.02553999
H        4.28400850       1.97701919      -1.47323942
H        5.04484844       1.14411950      -0.12179995
H        4.74704790       4.20133829      -0.27002990
H        6.77636766       2.31691909       1.24156952
H        6.74142742       4.14595842       1.33259952
H        6.93340731       4.25573826      -0.97164965
