19
Properties=species:S:1:pos:R:3 pbc="F F F"
C        0.87941968       0.05193998       0.03027999
C        2.38995910      -0.06614997       0.03109999
C        3.16379881       0.91813964       0.91726971
O        4.01296854      -0.14686994       1.41741955
C        3.09373879      -1.15172958       0.89525962
C        2.31106925      -1.78010941       2.04425931
C        3.85553861      -2.19258904       0.08367997
H        0.42841986      -0.80855972      -0.47306982
H        0.56751984       0.95431966      -0.50591981
H        0.46810982       0.10908996       1.04220963
H        2.75797892      -0.04743998      -1.00436962
H        2.60215902       1.38610947       1.73192930
H        3.73680854       1.67843938       0.37953988
H        1.84649932      -1.02027965       2.68104887
H        2.96830893      -2.38122916       2.68170905
H        1.51910937      -2.43393922       1.66483939
H        4.48904848      -1.72368932      -0.67666972
H        3.16176867      -2.86850882      -0.42791983
H        4.50458860      -2.79595900       0.72696972
