13
Properties=species:S:1:pos:R:3 pbc="F F F"
O        1.03952956      -0.09833997       0.10982995
C        2.23169923       0.12229995       0.00751000
C        2.90678906       1.41542947       0.25015989
C        4.21531820       1.21071959       0.02722999
C        4.58804846      -0.14722994      -0.39028984
C        4.35710859      -1.32042956       0.51820982
C        3.24921870      -0.88270968      -0.40395987
H        2.39675927       2.31025934       0.55833983
H        4.96075773       1.98982918       0.13869995
H        5.23584795      -0.25031993      -1.25150955
H        4.86742830      -2.24913907       0.28550988
H        4.24106836      -1.14802957       1.58284938
H        3.00808883      -1.49637938      -1.26234961
