14

N    0.07369700   0.02698200  -1.20242300
C    0.03094300  -1.10738500  -0.27578600
C    1.27041600  -0.65889500   0.50461400
C    1.23596500   0.69821400   0.53386800
C   -0.02577100   1.11636400  -0.22741300
C   -1.26356600   0.62424700   0.52370300
C   -1.22966000  -0.71214600   0.49433200
H    0.63561700   0.05995700  -2.05943800
H    0.06615100  -2.09633700  -0.74313800
H    2.04503000  -1.32029600   0.89500100
H    1.97638200   1.38065800   0.95331400
H   -0.04162400   2.12519600  -0.65131100
H   -1.99640600   1.27858300   0.99320700
H   -1.92779500  -1.42278400   0.93392800