20
Properties=species:S:1:pos:R:3 pbc="F F F"
C        1.11058962       2.25256920      -0.28805989
N        2.55183887       2.21177912      -0.49398983
C        3.17264867       1.18707955       0.34719986
C        4.67416811       1.14929962       0.09439997
C        5.52608776       2.31693912       0.66754973
C        6.61594772       1.27224958       0.97980958
C        5.49204779       0.21767992       1.02858961
H        0.67034972       3.01540875      -0.93742961
H        0.86016971       2.50712919       0.74832976
H        0.64560980       1.29468954      -0.54288983
H        2.94549894       3.12359881      -0.26268989
H        2.74831891       0.20501992       0.10681996
H        2.96927881       1.38960946       1.40576947
H        4.90079784       0.95250964      -0.96470964
H        5.10427809       2.79101896       1.56172943
H        5.80791759       3.09399891      -0.04765998
H        7.32885695       1.11968958       0.16159995
H        7.16742706       1.42351949       1.91092920
H        5.74550772      -0.76280969       0.61749977
H        5.06180811       0.08306997       2.02874923
