17

C    1.08608900  -0.03205400  -0.07458800
C    2.72100600  -0.03731800   0.05775700
C    3.09217300  -0.77040800   1.35672000
C    2.96257800  -0.80317800  -1.16498600
C    3.25077100  -0.24751900  -2.40738200
C    3.17585600   1.34322600   0.02961600
C    3.54843500   2.49407100   0.04633800
H    0.74434300   0.52619300  -0.95393300
H    0.78136900   0.49541200   0.84141300
H    0.69116300  -1.05508600  -0.07190200
H    2.71190700  -0.20927300   2.21968200
H    4.18516800  -0.83914700   1.44323900
H    2.66544100  -1.78316000   1.37321700
H    2.83933700  -1.89044500  -1.08842800
H    3.21309000   0.83714300  -2.55762400
H    3.53935400  -0.88439600  -3.24855100
H    3.88423300   3.51790900   0.07013200