19

C    2.22205500   0.46599800  -0.57125500
N    3.41892000   1.23502400  -0.51515600
C    4.69443500   0.70609000  -0.12610100
C    5.82042300   1.67469400  -0.41388000
C    6.96596300   1.24994500  -0.94793100
C    5.57295200   3.11645900  -0.02803900
N    4.41982600   3.65070000  -0.78082500
H    1.89835000   0.39343100  -1.62693500
H    1.41808600   0.99583600  -0.03434700
H    2.36858700  -0.54157000  -0.16212500
H    3.47949600   2.30778500  -0.72385500
H    4.84480200  -0.28515700  -0.59031700
H    4.62365400   0.50674100   0.96877600
H    7.12891600   0.20232900  -1.21449400
H    7.79659100   1.93831000  -1.12283200
H    6.48972100   3.70854500  -0.17292300
H    5.32350800   3.17100900   1.04507800
H    4.69127800   3.86484100  -1.74185600
H    4.08463200   4.52337800  -0.37261000