13
Properties=species:S:1:pos:R:3 pbc="F F F"
C        2.61861920      -1.12897956       0.35916987
C        2.17714930       0.12221995       0.16963995
N        2.98463869       1.26326954       0.11026996
C        2.49846911       2.54923916      -0.08757997
C        3.56534863       3.41163874      -0.08962996
C        4.67499828       2.58436894       0.11236995
N        4.34340811       1.29994953       0.23334990
H        1.93008924      -1.96586919       0.39368984
H        3.67716861      -1.34013951       0.48343983
H        1.11478961       0.30600989       0.04824998
H        1.43878949       2.72154903      -0.20735991
H        3.54234862       4.48357821      -0.21869992
H        5.71952772       2.86134887       0.17753993
