13
Properties=species:S:1:pos:R:3 pbc="F F F"
C        1.09629965      -0.09097997      -0.02332999
C        2.40387917      -0.24688990       0.20146993
N        3.38473868       0.68032974      -0.02904999
C        4.72949839       0.59706974       0.17275994
N        5.46510792      -0.34821987       0.62732977
C        5.52321815       1.74937928      -0.16770993
C        6.18138790       2.71381903      -0.45346984
H        0.39995983      -0.89470971       0.19591993
H        0.68618977       0.82848972      -0.42658985
H        2.76235890      -1.18993962       0.60722977
H        3.05348897       1.56167948      -0.40791985
H        4.87704802      -1.14850962       0.85915971
H        6.78120756       3.55781865      -0.70052975
