17
Properties=species:S:1:pos:R:3 pbc="F F F"
C        0.94579965       0.53408974       0.50678980
C        2.37945914       0.57466984      -0.01904999
C        2.47326899      -0.14467995      -1.37097943
C        3.88989854      -0.33175987      -1.84256935
C        4.36613846       0.17055994      -2.98905873
C        2.86164904       2.00869918      -0.15685995
O        2.18326926       2.99925876       0.09926996
H        0.86928964       1.04227960       1.47430944
H        0.60808975      -0.49856982       0.64232975
H        0.25362989       1.03075969      -0.18313994
H        3.03339887       0.08809997       0.71530974
H        1.89020932       0.40129983      -2.12395930
H        2.02239919      -1.14139950      -1.28620958
H        4.54961824      -0.92832971      -1.21497953
H        3.74552846       0.75767976      -3.66010857
H        5.39505768      -0.00490000      -3.28998876
H        3.91209841       2.12804937      -0.47442985
