19
Properties=species:S:1:pos:R:3 pbc="F F F"
C        1.46141934      -0.16472994       1.31314957
C        2.90309882      -0.22895992       0.84529972
C        3.10880899       0.70889974      -0.31104988
N        3.87342834       1.74599934      -0.18918994
N        3.93753839       2.48887897      -1.32665944
C        2.94447899       3.57180858      -1.41576958
C        5.26700783       3.06082892      -1.58182931
H        1.30057955      -0.85065967       2.15021920
H        0.77368975      -0.43964985       0.50676978
H        1.20084953       0.84677970       1.64134943
H        3.14333868      -1.24168956       0.50715983
H        3.58005881       0.03484999       1.66419935
H        2.57399917       0.47101983      -1.24896944
H        1.93124926       3.16768861      -1.30968940
H        2.98783875       4.06562853      -2.39290905
H        3.09491897       4.32169819      -0.63107979
H        6.02057791       2.26548910      -1.59707940
H        5.55158806       3.78459859      -0.80928969
H        5.30397797       3.55310869      -2.56048918
