10

N    0.91771900   0.04289100  -0.00701700
C    2.08783400   0.02601800  -0.00351700
C    3.47581800   0.00301900   0.00061600
C    4.36325600   1.15280700   0.00410000
N    5.56296000   0.65048500   0.00732300
N    5.60939400  -0.73458000   0.00646300
C    4.37960400  -1.13571900   0.00249800
H    4.13801800   2.22074200   0.00419800
H    6.44952900   1.15996400   0.01034100
H    4.11889200  -2.19453800   0.00095500