14
Properties=species:S:1:pos:R:3 pbc="F F F"
O        0.82381970      -0.02914999      -0.00625000
C        2.24782920       0.02931999      -0.00021000
C        2.75619888       1.45591950       0.01501999
C        1.93376923       2.52137899       0.00657000
C        4.19659853       1.68854928       0.03965998
C        5.15813780       0.75607973       0.06373998
H        0.58681977      -0.97069961       0.00730000
H        2.60419893      -0.48941982      -0.89662969
H        2.59588909      -0.50651979       0.88886964
H        0.85478967       2.39687896      -0.01196000
H        2.29975915       3.54290867       0.01806999
H        4.51583815       2.73097897       0.03902999
H        4.95608807      -0.30876988       0.06836998
H        6.20232773       1.05483961       0.08130997
