14

N    2.80566100   3.78081300  -1.89439700
C    2.39826000   3.65740800  -0.65222000
N    3.09422500   2.85308000   0.15561000
C    4.29346800   2.11960700  -0.21111100
C    5.56981400   2.94253900   0.09348900
C    6.75099600   2.14771200  -0.22768100
N    7.66492100   1.49366800  -0.49009200
H    2.27415800   4.48955000  -2.41428700
H    1.51992700   4.15065900  -0.21131500
H    2.77469100   2.78314900   1.12664600
H    4.24083800   1.89551100  -1.28450300
H    4.29113500   1.18782300   0.37194800
H    5.61209400   3.23537500   1.15401500
H    5.57278200   3.85842900  -0.51781900