17
Properties=species:S:1:pos:R:3 pbc="F F F"
C        1.00323963      -0.08301996       0.12018995
C        2.49806905       0.00674000       0.10068996
C        3.14892888       1.16219962      -0.11492996
C        4.64158821       1.26351953      -0.11731996
C        5.30036783      -0.04405998       0.30665988
C        4.48882818      -1.22586954      -0.20043992
O        3.14305878      -1.19747949       0.29037988
H        0.67290974      -1.10226965      -0.10311996
H        0.55682981       0.57697976      -0.63101971
H        0.61707973       0.19282992       1.10663962
H        2.59004903       2.07907915      -0.28050989
H        4.96887779       1.53477943      -1.12772965
H        4.96166849       2.06928921       0.55323982
H        6.32865763      -0.08980996      -0.06747997
H        5.34552765      -0.08197997       1.40206945
H        4.94203806      -2.16190910       0.14223996
H        4.46706820      -1.25609946      -1.29706943
