17

C    0.97025900   0.08261500  -0.15203600
O    2.40207100   0.17708000  -0.28666300
C    3.01256100   1.29817600  -0.19680300
C    4.41959300   1.37285600  -0.31704800
C    4.86363300   2.76619000  -0.13951200
C    3.57697400   3.61751800  -0.20500500
C    2.41736900   2.63935700   0.07021000
H    0.74151800  -0.98628600  -0.17354600
H    0.49359100   0.59364700  -0.99949200
H    0.65831600   0.52676200   0.80246600
H    5.05574200   0.50010200  -0.48125400
H    5.37243600   2.84202200   0.84561600
H    5.64179300   3.05294500  -0.86688400
H    3.46770600   4.04567600  -1.21129700
H    3.58937600   4.45483300   0.50230200
H    1.51389900   2.82562800  -0.53162900
H    2.08843300   2.66210600   1.12760600