14
Properties=species:S:1:pos:R:3 pbc="F F F"
C        0.91707969      -0.00188000      -0.37357986
C        2.39776897       0.01707999      -0.10401996
C        3.06628895      -1.12529957       0.13465995
C        3.04399896       1.34192944      -0.14651994
C        2.84863901       2.27983928       1.02020955
O        4.12664843       1.70714939       0.72831976
H        0.70392972       0.44152984      -1.35180950
H        0.38323987       0.57253975       0.39080983
H        0.50869983      -1.01816964      -0.37260985
H        2.57073903      -2.08977914       0.15341994
H        4.13599873      -1.11139965       0.32347989
H        3.07204890       1.78016925      -1.13961959
H        2.33959913       1.92546928       1.90780926
H        2.71298909       3.33333898       0.81197965
