9
Properties=species:S:1:pos:R:3 pbc="F F F"
N        0.98112959      -0.09832996       0.00000000
C        2.33658934       0.00838000       0.00000000
C        3.05351877       1.13798952       0.00000000
C        4.45951843       1.13798952       0.00000000
N        5.61052799       1.13798952       0.00000000
H        0.54167980      -1.01337957       0.00000000
H        0.39025986       0.72566968       0.00000000
H        2.83534908      -0.96178961       0.00000000
H        2.55931902       2.10175920      -0.00000000
