17
Properties=species:S:1:pos:R:3 pbc="F F F"
C        0.99208963      -0.03082999       0.01144000
C        2.51999903       0.00000000       0.00000000
C        3.05920887      -0.76321971      -1.20883954
C        3.00201893       1.36116946       0.00000000
C        3.39929867       2.48306894       0.00000000
C        3.86862850       3.80841851       0.00000000
C        3.02984905       4.84955788      -0.00061000
H        0.59638977       0.48916984       0.89088964
H        0.62401974      -1.06166971       0.03772999
H        0.57384980       0.45592982      -0.87684971
H        2.87539911      -0.50643981       0.90590966
H        2.73080897      -0.30857986      -2.15055919
H        2.71618915      -1.80315936      -1.19735956
H        4.15504837      -0.77174973      -1.21021962
H        4.94175816       3.97413850       0.00043000
H        1.95236921       4.71457815      -0.00108000
H        3.40934873       5.86581755      -0.00066000
