12
Properties=species:S:1:pos:R:3 pbc="F F F"
C        0.39833984       1.56215942       0.46834981
C        0.89048964       0.35585988      -0.27740991
N        0.94039965      -0.96111959       0.37466985
N       -0.36537987      -1.39076936       0.50195980
C       -1.20364952      -0.46180984       0.16389994
C       -0.55800974       0.74830973      -0.35695985
H        0.68705976       2.53778911       0.09735997
H        0.33175987       1.50103939       1.54874945
H        1.52136934       0.50328982      -1.14545953
H        1.49606943      -1.65575933      -0.12857996
H       -2.29766917      -0.55720979       0.21387991
H       -0.92343962       1.14827955      -1.29218948
