17
Properties=species:S:1:pos:R:3 pbc="F F F"
C        2.45049906      -0.61231977       1.40779948
C        2.56146908      -0.04614998      -0.00093000
C        3.01469898       1.39698946       0.00000000
C        2.17727923       2.45248914      -0.03388999
C        0.68200976       2.43117905      -0.02363999
C        4.39715815       1.65321946       0.00000000
C        5.56738806       1.87010920       0.00000000
H        2.12666941      -1.65737939       1.36913943
H        1.71979940      -0.05466998       2.00320935
H        3.41329861      -0.57761973       1.92858922
H        1.60124946      -0.15789995      -0.51635981
H        3.26999855      -0.65371978      -0.57880980
H        2.60498905       3.45569849      -0.05590998
H        0.26181990       1.43730938       0.14343995
H        0.29908988       2.81305909      -0.97449958
H        0.31391990       3.08011889       0.77718967
H        6.61425734       2.06528926       0.00010000
