17
Properties=species:S:1:pos:R:3 pbc="F F F"
C        2.67223907      -0.62294972       1.46740949
C        2.52271914      -0.02850999       0.07409997
C        3.01469898       1.39698946       0.00000000
C        2.16262937       2.42941904      -0.10276996
C        4.39715815       1.65321946       0.00000000
C        5.56738806       1.87010920       0.00000000
C        6.98720741       2.13325930       0.00000000
H        2.28783917      -1.64779937       1.48297942
H        2.11319923      -0.04107998       2.20730901
H        3.72196865      -0.65427977       1.77901924
H        1.46592939      -0.08593997      -0.22062993
H        3.07250881      -0.64466977      -0.64948976
H        1.08825958       2.27850914      -0.11967995
H        2.51670909       3.45425868      -0.16999994
H        7.18859720       3.20880890      -0.01277000
H        7.46966696       1.69226933      -0.87766969
H        7.46556711       1.71402931       0.89048964
