19

C    1.10150500   0.21086500   0.02349700
C    2.54295000  -0.23213600   0.00538400
C    3.01069200  -0.91953000   1.26090700
C    3.02117300  -0.86739400  -1.27788300
C    3.40131600   1.37036900  -0.05844800
C    3.89610300   1.98599300   1.16461600
O    4.69938200   1.30008800   0.14390800
H    0.80351200   0.74049100  -0.89142700
H    0.85505700   0.81722400   0.90623600
H    0.49207500  -0.70925000   0.08590700
H    2.65995400  -0.42999700   2.17935800
H    4.09913500  -1.06322700   1.28925800
H    2.55054000  -1.92379000   1.25038700
H    2.72992500  -0.29881200  -2.17156300
H    2.52649800  -1.85319400  -1.34419800
H    4.10507300  -1.04492400  -1.28262600
H    2.99907400   1.78667800  -0.99286600
H    3.82410800   1.44155800   2.10838200
H    4.08834800   3.06129700   1.21137000