17
Properties=species:S:1:pos:R:3 pbc="F F F"
C        1.39276958      -0.18860993       0.68363976
C        2.42346907       0.14857996      -0.40064985
C        2.76842904      -1.11062956      -1.20030951
C        2.00020933       1.26588953      -1.33384955
C        0.73951972       1.60560942      -1.65284932
C        3.08494878       2.09062934      -1.94152927
O        4.27430820       1.88804924      -1.72969937
H        1.11377954       0.70496976       1.25268960
H        1.80819929      -0.91443968       1.39177954
H        0.48202983      -0.62752974       0.26195991
H        3.32702875       0.46932983       0.13439995
H        1.89613926      -1.48920941      -1.74549937
H        3.12031889      -1.90746927      -0.53595978
H        3.56157851      -0.91486961      -1.93002939
H       -0.11242995       1.06089962      -1.25809956
H        0.50739980       2.42687917      -2.32405925
H        2.75478888       2.90792871      -2.60519886
