15
Properties=species:S:1:pos:R:3 pbc="F F F"
C        1.05954957       0.04137998      -0.03831999
N        2.44800925       0.05333998       0.35276985
C        3.17419887       1.22104955       0.43145984
N        4.41056824       1.22238958       0.01781999
C        4.69845819      -0.12299995      -0.45033982
C        4.62449837      -1.30750954       0.47058982
C        3.39182878      -0.89459968      -0.27278990
H        0.65185976      -0.97221959       0.02965999
H        0.93899965       0.39656988      -1.06656957
H        0.46964982       0.68421972       0.62364978
H        2.63811898       2.10912919       0.80197972
H        5.32395792      -0.22255991      -1.32730949
H        5.12024784      -2.21824908       0.15863994
H        4.67538834      -1.12339962       1.53644943
H        3.02938890      -1.47514951      -1.11047959
