14
Properties=species:S:1:pos:R:3 pbc="F F F"
C        0.84238970       0.15081994      -0.28328988
C        2.26479936      -0.07673997       0.11840995
C        2.60579896       0.05888998       1.57053947
O        2.14936924      -1.08790958       2.27988911
C        3.16962886      -0.89075971      -0.77739966
O        3.21297884       0.54429978      -0.76488972
H        0.71671975       0.12602995      -1.37181950
H        0.49352983       1.12646961       0.07047997
H        0.19559993      -0.62161976       0.14462994
H        2.14806938       0.95242965       2.00813913
H        3.68756866       0.13166995       1.72295940
H        1.17818952      -1.06013966       2.27813935
H        2.74908900      -1.37306952      -1.65106940
H        3.99992847      -1.42412949      -0.32934991
