13
Properties=species:S:1:pos:R:3 pbc="F F F"
C        1.01149964      -0.02825999       0.25417989
C        2.51999903       0.00000000       0.00000000
C        2.83892870      -0.77436972      -1.26557958
C        3.37104869      -0.31588987      -2.40850925
C        3.00201893       1.36116946       0.00000000
N        3.38622880       2.44615912       0.00000000
H        0.76429975       0.46690983       1.20034957
H        0.63883972      -1.05718958       0.31086987
H        0.45885983       0.48635983      -0.54106981
H        3.00729895      -0.53441983       0.82596970
H        2.60799909      -1.83899927      -1.21737945
H        3.64016867       0.72613972      -2.55866909
H        3.55300856      -0.98937964      -3.24200892
