14

C    1.35655100   0.31852000   0.18972200
C    2.76851100   0.05807000   0.05869700
C    3.97501500  -0.18240000  -0.05549600
C    5.40562600  -0.32702900  -0.20539700
C    5.42944400   1.17841900  -0.18083000
C    5.52723100   1.90351700   0.98204600
H    1.19416400   1.40839000   0.25907800
H    0.95620500  -0.14662800   1.10237200
H    0.81170900  -0.04793900  -0.69317900
H    5.71321500  -0.75936900  -1.16504800
H    5.89720100  -0.81663100   0.64516500
H    5.33834800   1.69070300  -1.14382500
H    5.56309100   1.41215600   1.95932000
H    5.59380700   2.99418600   0.95335200