19
Properties=species:S:1:pos:R:3 pbc="F F F"
C        2.05741930       0.85689968      -0.37423986
O        3.20511866       1.69825935      -0.40347987
C        4.18715858       1.21601951      -1.32778955
C        5.45620775       2.07437921      -1.22260952
C        6.53121758       1.53038943      -2.16114902
C        5.18055820       3.55420876      -1.53395951
O        4.31012821       4.14344835      -0.57636976
H        1.33962941       1.28113961       0.33231986
H        2.32827926      -0.14753994      -0.03617999
H        1.59121931       0.81020969      -1.36327946
H        3.77238870       1.26270950      -2.34302926
H        4.42496824       0.17394993      -1.09256959
H        5.81412745       2.01624918      -0.18881993
H        6.18567801       1.52354944      -3.20057869
H        6.80058718       0.50440979      -1.88767934
H        7.44129753       2.13832927      -2.11115909
H        4.73030853       3.67277861      -2.52555919
H        6.11381769       4.12706852      -1.51670945
H        3.62711859       3.47359872      -0.36354986
