17

C    0.91592800  -0.11941900   0.27772500
C    2.36777600   0.13140300  -0.12043800
C    3.22446500   1.16528200   0.64930200
C    4.17200600   0.00309400   1.03237900
C    5.63371200   0.02055000   0.59380100
N    3.30953500  -0.88591500   0.28783100
H    0.50492700  -0.99713600  -0.23962900
H    0.32795900   0.76020100  -0.01778000
H    0.82430200  -0.25573800   1.36399400
H    2.42680300   0.23560600  -1.22434600
H    2.71010900   1.63769500   1.49518700
H    3.68759100   1.93698800   0.02219700
H    4.11988900  -0.28073800   2.10462300
H    5.72109200   0.27149800  -0.47219200
H    6.12081500  -0.94526000   0.78595700
H    6.15324400   0.79020400   1.18071300
H    3.35124600  -1.89643500   0.11017200