19
Properties=species:S:1:pos:R:3 pbc="F F F"
C        2.34420919      -0.31621990      -0.29116991
C        3.86007857      -0.41402984      -0.33361986
N        4.41173840       0.88263971       0.04280999
C        5.69473791       1.03199959       0.09694996
C        6.67061758      -0.08994997      -0.20421992
N        6.24870777       2.24279928       0.44382983
C        5.46021795       3.32041883       0.99607962
H        1.89120936      -1.26877952      -0.58161980
H        1.98299921       0.45956981      -0.97420961
H        1.99729919      -0.06264998       0.71587974
H        4.16653824      -0.68825978      -1.34910953
H        4.18317842      -1.19636953       0.36199984
H        6.54248714      -0.89339966       0.52615976
H        7.70369720       0.26485988      -0.14965995
H        6.49556732      -0.47814983      -1.21082962
H        7.22818756       2.25097895       0.70196974
H        4.60891819       3.56158853       0.35099989
H        6.07699776       4.21944857       1.08501959
H        5.09277821       3.05701900       1.99250925
