19
Properties=species:S:1:pos:R:3 pbc="F F F"
C        0.98126966       0.01844999      -0.00941000
C        2.49840903      -0.02116999       0.02938999
C        3.07721877      -1.13377964       0.91648966
C        3.91559863      -0.27913988       1.87080932
C        4.59209824       0.79634970       0.96367967
C        3.09343886       1.19266963       0.75332975
C        2.98315883       0.89998966       2.28722930
H        0.58790976      -0.87337971      -0.50844979
H        0.63435978       0.89935964      -0.56015980
H        0.53912979       0.06384998       0.99097961
H        2.88716888      -0.09434997      -0.99300963
H        3.70077848      -1.82522941       0.34056985
H        2.31109929      -1.70693934       1.44877946
H        4.51282835      -0.76892966       2.63877892
H        5.13567781       0.43060982       0.08721996
H        5.21736813       1.53507948       1.47834945
H        2.87400889       2.19654918       0.39052984
H        3.42637873       1.65147936       2.95086908
H        1.99919927       0.63210976       2.68051910
