15
Properties=species:S:1:pos:R:3 pbc="F F F"
C        0.99999964       0.00000000       0.00000000
C        2.19015908       0.00000000       0.00000000
C        3.63415861       0.00000000       0.00000000
C        4.22230864      -1.26113951       0.64983976
C        4.53821802      -0.88857967       2.10094929
C        4.65439844       0.59812975       2.04126930
C        4.15440845       1.08235955       0.89799964
H       -0.06552997       0.00285000       0.00374000
H        4.02652836       0.11656995      -1.01571965
H        5.15943813      -1.52681935       0.14098994
H        3.56701851      -2.13770938       0.58930975
H        5.46757793      -1.35808945       2.43532896
H        3.72811866      -1.17917955       2.77786899
H        5.05462837       1.20207953       2.84451890
H        4.10505867       2.13342929       0.64793974
