19
Properties=species:S:1:pos:R:3 pbc="F F F"
C        1.91416931      -0.53037983      -1.29632950
O        2.18326926       0.06103998      -0.03493999
C        3.06451869       1.20279956      -0.05227998
C        2.45531917       2.53950906      -0.53955978
C        3.21228886       3.25451899       0.60317975
C        4.54405785       3.88432860       0.22482991
C        3.29128885       1.88518929       1.31694949
H        1.24928951      -1.38479948      -1.14670956
H        2.84414911      -0.88081968      -1.75419939
H        1.42163944       0.19039993      -1.95552933
H        4.01321840       0.95822966      -0.54924977
H        1.36420953       2.59019899      -0.44352981
H        2.72988892       2.83652878      -1.55593944
H        2.59229898       3.98363853       1.13933957
H        5.19120789       3.18399882      -0.31379989
H        5.07837820       4.21677828       1.12086964
H        4.38601828       4.75834846      -0.41505986
H        4.24266863       1.65340948       1.80430937
H        2.48082900       1.71611941       2.03562927
