21
Properties=species:S:1:pos:R:3 pbc="F F F"
C        0.83976966      -0.11947995      -0.00872000
C        2.36408901      -0.02290999       0.03624999
N        2.93211889      -0.88504970      -1.01910961
C        2.93821883       1.44005942      -0.05579998
C        2.40592909       2.21558905      -1.27210951
C        2.62944889       2.22924900       1.22622955
N        4.41171837       1.35304952      -0.21243991
H        0.37971985       0.47388980       0.78702974
H        0.51601982      -1.15721953       0.13393995
H        0.43334982       0.22014990      -0.96710962
H        2.69354892      -0.45423982       0.99079967
H        3.91994858      -0.61134976      -1.09227955
H        2.54214907      -0.60781980      -1.91912925
H        2.60833883       1.69192934      -2.21274900
H        2.86911893       3.20732903      -1.34425950
H        1.32480955       2.37560892      -1.20221961
H        3.00299883       1.70867932       2.11535931
H        1.55267942       2.38017917       1.35432947
H        3.09374881       3.22237873       1.20525956
H        4.80387783       0.86955965       0.59681976
H        4.81270790       2.29087925      -0.19940992
