16
Properties=species:S:1:pos:R:3 pbc="F F F"
C        0.93276966       0.06970997      -0.20601992
C        2.40131903      -0.03474999       0.02766999
C        3.25549865      -0.86791968      -0.88661969
C        3.36899877       0.63577980      -0.91730970
C        4.56525850       1.27015948      -0.35818988
C        5.80241776       1.18473959      -0.86256969
H        0.54537976       0.98846960       0.24457991
H        0.41784984      -0.77929968       0.25363991
H        0.68463975       0.08209997      -1.27224958
H        2.63502908      -0.05684998       1.08664954
H        2.79037905      -1.35416949      -1.73692930
H        4.05756855      -1.44600940      -0.43982983
H        2.95684910       1.14606953      -1.78315926
H        4.41931820       1.87449932       0.53697979
H        6.00604773       0.60362977      -1.75539935
H        6.63455725       1.69438946      -0.38734984
