15
Properties=species:S:1:pos:R:3 pbc="F F F"
C        0.99625963      -0.00477000       0.03477999
C        2.51226902       0.03099999       0.00513000
C        3.09032869       1.15557957       0.83796966
C        4.44740820       0.61143976       1.20264947
O        4.25392866      -0.79448968       1.35566950
C        3.14117885      -1.17401958       0.65694976
O        2.75612903      -2.32667923       0.55804974
H        0.61830974      -0.83289969      -0.57397979
H        0.57701975       0.92641968      -0.35906988
H        0.61690974      -0.15025994       1.05214965
H        2.87954879       0.08702996      -1.02625966
H        2.49807906       1.30817950       1.74911928
H        3.14399886       2.10913920       0.30522990
H        5.18907785       0.77920973       0.41459984
H        4.82056808       1.03689957       2.13843942
