16
Properties=species:S:1:pos:R:3 pbc="F F F"
N        1.02382958       0.01104000       0.12213995
C        2.46646929       0.01937999      -0.07296997
C        3.10496879       1.05674958       0.87443966
C        4.16880846      -0.02120999       1.22635961
C        3.10808873      -1.07674956       0.80371964
C        5.37524796       0.00653000       0.41715986
C        6.36507797       0.02823999      -0.26396990
H        0.55787981      -0.76826972      -0.34231988
H        0.56308979       0.85246968      -0.22377992
H        2.80914903       0.05614998      -1.11157966
H        2.49797916       1.35084951       1.74110925
H        3.47370863       1.96781921       0.39271986
H        4.40390825      -0.05585998       2.29711914
H        3.47995877      -1.95292926       0.26325989
H        2.50239921      -1.42933953       1.64922941
H        7.23843718       0.04669998      -0.87300962
