12
Properties=species:S:1:pos:R:3 pbc="F F F"
C        0.94552964      -0.21258992       0.11341996
C        2.41565895       0.11227996      -0.08166997
C        2.65003896       1.59329951      -0.25772992
O        1.78910935       2.46294928      -0.22478992
C        4.07805872       2.02534914      -0.49108982
O        4.98979807       1.21442950      -0.52535981
H        0.80604970      -1.29117954       0.23657991
H        0.35290986       0.11297996      -0.74843967
H        0.54587984       0.28788987       1.00210965
H        2.78616881      -0.40656984      -0.97149962
H        2.98283887      -0.22755992       0.79079968
H        4.20811844       3.11058879      -0.62348980
