14
Properties=species:S:1:pos:R:3 pbc="F F F"
C        2.66413903      -1.24221945      -1.20817947
C        3.22033882      -0.63376975       0.05234998
O        3.44932866      -1.32421947       1.04606962
C        3.48418880       0.86405969       0.03194999
C        4.94439840       1.13207948       0.23848991
C        5.72899818       1.77510929      -0.63581979
H        3.36320877      -1.08221960      -2.03230929
H        1.69753933      -0.78727973      -1.43747950
H        2.52342892      -2.31726933      -1.06723964
H        2.89461875       1.32418954       0.83203971
H        3.12869883       1.28303945      -0.91601962
H        5.37640810       0.77087969       1.17150962
H        5.35013771       2.15830922      -1.57797945
H        6.78132725       1.93524933      -0.41841984
