19
Properties=species:S:1:pos:R:3 pbc="F F F"
C        1.34061944       0.55395979       0.46638983
C        2.75142884       0.43140984      -0.08812997
N        3.49579883       1.66384935       0.16928995
C        4.83741856       1.58615935      -0.41078985
C        5.51933813       2.90417886      -0.19313993
C        6.43946743       3.11806870       0.98144960
N        6.97172737       2.99589872      -0.37220988
H        0.78027976      -0.36736986       0.27587989
H        0.79981971       1.38016951      -0.00821000
H        1.34998953       0.72531974       1.54817951
H        2.68977904       0.24047992      -1.16554952
H        3.25121856      -0.42337984       0.38162985
H        3.57770848       1.80390942       1.17562950
H        4.77263832       1.40224946      -1.48926950
H        5.40657759       0.76603973       0.04362998
H        4.94437790       3.74130845      -0.57266974
H        6.64842749       2.28746915       1.64360940
H        6.48430729       4.10034847       1.43395948
H        7.22448730       3.91088843      -0.75136971
