15
Properties=species:S:1:pos:R:3 pbc="F F F"
O        1.09422958       0.03866998       0.34965989
C        2.29542923       0.01701999       0.08287997
C        3.06503892      -1.27539957       0.00180000
C        3.99688864      -1.20648944      -1.19110954
O        4.81686783      -0.03650999      -1.11984956
C        4.03363848       1.15616965      -1.21901953
C        3.10456872       1.28273952      -0.02854999
H        2.37408924      -2.11785913      -0.09615996
H        3.62900853      -1.38075948       0.93447959
H        4.65997791      -2.07742929      -1.19731951
H        3.44314861      -1.20461965      -2.13754916
H        4.72322845       2.00571918      -1.24610960
H        3.47952867       1.14884961      -2.16563916
H        3.67179871       1.39322948       0.90179962
H        2.44003892       2.14322925      -0.14745994
