12
Properties=species:S:1:pos:R:3 pbc="F F F"
C        1.02839959       0.07612997      -0.60181975
O        2.36357903      -0.06407998      -0.12417996
C        3.04719877       1.12310958      -0.13332994
C        4.37553835       1.16826952       0.00000000
C        5.07853794       2.38589907       0.00000000
C        5.67361784       3.41660857       0.00000000
H        0.56237978      -0.91345966      -0.60311979
H        1.01977968       0.46228984      -1.62692940
H        0.44662982       0.72899973       0.05782998
H        2.43708897       2.01163912      -0.23843990
H        4.93656778       0.24574991       0.11157996
H        6.20751762       4.33826828       0.00066000
