16
Properties=species:S:1:pos:R:3 pbc="F F F"
C        0.98690963      -0.09008996       0.00872000
C        2.50638890      -0.03745999       0.01501999
C        3.01765871       1.40309942      -0.00066000
C        4.54552794       1.45143950       0.00097000
C        5.03228807       2.83847880       0.00110000
C        5.43377829       3.97129846       0.00204000
H        0.64363974      -1.12926960       0.02362999
H        0.58154976       0.38867983      -0.88837963
H        0.57295978       0.41699985       0.88610965
H        2.88840890      -0.57813978      -0.85870963
H        2.88001895      -0.55514979       0.90616965
H        2.62799907       1.94099927       0.87324965
H        2.63116908       1.92166924      -0.88756967
H        4.93457794       0.92772961      -0.88008970
H        4.93329811       0.92862964       0.88309968
H        5.78925800       4.97534800       0.00307000
