17
Properties=species:S:1:pos:R:3 pbc="F F F"
C        1.19970953       0.14435995       0.53105980
C        2.60133910       0.20729992      -0.04451998
N        3.01410890      -0.77742970      -0.78007972
N        3.37464881       1.30873954       0.25361991
C        2.81714892       2.61247897       0.02442999
C        4.21469831       3.06279898      -0.40180984
C        4.52612829       1.57521939      -0.56610978
H        1.11155963       0.78853971       1.41022944
H        0.95962965      -0.88162965       0.82485968
H        0.48688981       0.47272980      -0.23064992
H        2.28611922      -1.49330938      -0.86619967
H        2.42417908       3.07690883       0.93175966
H        2.07129931       2.63883901      -0.77750969
H        4.26223850       3.66216874      -1.31450951
H        4.78831816       3.55700850       0.39009985
H        4.44186831       1.22124946      -1.59913945
H        5.45950794       1.23029947      -0.11558995
