11
Properties=species:S:1:pos:R:3 pbc="F F F"
C        0.24096991      -1.35784948       0.06027998
O       -0.96329963      -0.82162970      -0.50561982
N       -1.32270944       0.45740983      -0.00582000
C       -0.31976989       1.26821959       0.11155996
C        1.09979951       0.93379962      -0.10523996
C        1.36189950      -0.37620986      -0.06911997
H        0.48054981      -2.26518917      -0.50262982
H        0.07003997      -1.63575935       1.10557961
H       -0.51293981       2.30349898       0.43664986
H        1.83984935       1.71482933      -0.19061993
H        2.37701893      -0.74808973      -0.14107995
