14

C    1.39897600   0.21054800  -1.52071300
C    2.50247000   0.29269400  -0.68841300
O    3.61260100   0.73472100  -1.17691400
C    4.77789900   0.85405700  -0.41888500
C    6.06305200   0.62723700  -1.18947400
C    5.67762700   2.00837000  -0.81443200
H    0.44923200  -0.16021100  -1.13021800
H    1.47367300   0.51523500  -2.56817200
H    2.47843000  -0.00095500   0.36905100
H    4.66603800   0.54041800   0.62259100
H    5.95272300   0.32387300  -2.23319200
H    6.84897000   0.11216200  -0.63154400
H    6.18065300   2.50496100   0.01897600
H    5.29752500   2.67061700  -1.59574500