18
Properties=species:S:1:pos:R:3 pbc="F F F"
C        1.49211943      -0.17944993       0.89706969
N        2.89759874       0.18455993       0.77579969
C        3.09503865       1.58620942       0.34877986
C        2.53643918       2.60260892       1.34721947
C        4.60893869       1.86089933       0.12878996
N        5.26617813       0.81940967      -0.67428976
H        1.41331947      -1.25693953       1.07692969
H        0.93182963       0.04763998      -0.01625999
H        1.01793969       0.31933987       1.74796927
H        3.31024885      -0.39406985       0.04043999
H        2.59197903       1.72978938      -0.61738974
H        2.94734907       2.44375920       2.34997916
H        1.44556952       2.54629898       1.41128945
H        2.78813910       3.62353873       1.03935957
H        5.12553835       1.92700934       1.09508955
H        4.73324871       2.82558918      -0.37543988
H        5.30567789      -0.02532999      -0.10183996
H        6.23869753       1.08818960      -0.81831968
