16

C    0.98922100   0.08359600  -0.10226300
C    2.44210200  -0.18523900   0.00604600
C    2.89724700  -1.57503700  -0.23080800
C    3.31303300   0.87816500   0.32442200
C    4.70784700   0.78203000   0.46155300
C    5.47301900   1.88692700   0.77629000
H    0.72235000   1.13058500   0.08165000
H    0.44082000  -0.56289000   0.60502100
H    0.63225100  -0.21427100  -1.10361100
H    2.37394400  -2.24946800   0.46821800
H    3.97567100  -1.73350400  -0.13681800
H    2.57564900  -1.89174300  -1.23771800
H    2.85751700   1.86231900   0.47686200
H    5.21154500  -0.17742400   0.31965700
H    5.01610200   2.86951000   0.92822500
H    6.55784400   1.81099200   0.88263100