15
Properties=species:S:1:pos:R:3 pbc="F F F"
C        0.89885968       0.12055996       0.01996999
C        2.41011906       0.00038000       0.01067000
C        3.16970897       0.91676968       0.97088963
O        3.74889874      -0.20638992       1.67078936
C        3.00617886      -1.15017951       0.84617972
C        3.91158843      -2.19133925       0.12941995
O        4.27645826      -2.18226933      -1.04693961
H        0.44529983      -0.69656974      -0.55014980
H        0.58540976       1.06419969      -0.43791983
H        0.49480981       0.08815997       1.03734958
H        2.80210900       0.05357998      -1.01230967
H        2.55897903       1.52878940       1.64134943
H        3.93992853       1.53937936       0.50620979
H        2.26365924      -1.66187942       1.47325945
H        4.22423840      -3.02611899       0.77892971
