18
Properties=species:S:1:pos:R:3 pbc="F F F"
N        0.80728972      -0.05161998      -0.56391978
C        2.20156908      -0.00923000      -0.08335996
C        3.21979880      -0.73030972      -0.94518965
C        3.18332863       0.76790971      -0.93862963
C        2.37832904      -0.01313000       1.45887947
C        1.52135944       0.80653971       2.39593911
C        1.41013956      -0.69011974       2.40092921
H        0.76658970      -0.01962999      -1.58034945
H        0.30763987       0.77283967      -0.23662992
H        2.87424898      -1.25062954      -1.83059931
H        4.04799843      -1.22319949      -0.44909984
H        3.99012852       1.29181945      -0.43857983
H        2.82285881       1.27193952      -1.82712924
H        3.42431855      -0.08913997       1.76442933
H        0.69400978       1.37306952       1.98780930
H        2.00878930       1.28284943       3.23867869
H        1.82237923      -1.23239946       3.24342871
H        0.51697981      -1.13869953       1.98142922
