13

C    0.91524000   0.00754100  -0.04431700
C    2.45924500  -0.04162800   0.00010600
C    3.09547900  -1.23617100  -0.59049000
C    4.03998800  -0.82147100  -1.55764400
O    4.10915600   0.44637400  -1.69088300
C    3.10919000   1.10546400  -0.74533500
O    3.00834900   2.25937800  -0.75899500
H    0.57721700   0.96345100   0.37619300
H    0.50348100  -0.80891800   0.56223200
H    0.54428000  -0.08236200  -1.07368900
H    2.77352400   0.04508900   1.06176200
H    2.88506900  -2.27521800  -0.32972900
H    4.69419900  -1.44328700  -2.17809800