15

C    2.33009400  -0.33922300   1.54143100
C    2.32336100   0.09269300   0.04074700
C    2.92552200   1.43323300  -0.04067800
C    2.07873400   2.63246400   0.01210200
C    4.33611200   1.55876400  -0.14864000
H    1.87173000  -1.33565000   1.59636500
H    1.74281300   0.35366800   2.15861400
H    3.34936700  -0.40602500   1.94585400
H    1.28626500   0.11052400  -0.32252600
H    2.90532900  -0.64106200  -0.53750200
H    1.74026700   2.80557700  -1.03393300
H    2.60428600   3.53869500   0.33935200
H    1.15963600   2.46333300   0.59180500
H    4.98178400   0.67626500  -0.09480000
H    4.80564600   2.53626700  -0.29770500