12

N    0.83579300   0.06298700   0.13739700
N    2.13371900   0.14401500   0.10802000
C    2.95878200   1.08975600  -0.07092800
C    4.43277500   0.85549800  -0.12838000
C    4.94030700   1.39325300  -1.39011000
C    5.33013700   1.84083300  -2.44052700
H    0.40819000  -0.17727200   1.03636700
H    0.36994800  -0.26943800  -0.71248600
H    2.57075600   2.11449600  -0.20125400
H    4.65935600  -0.21490200  -0.01342600
H    4.88628300   1.39195700   0.72556100
H    5.69751000   2.23683400  -3.37208200