15
Properties=species:S:1:pos:R:3 pbc="F F F"
C        0.97635961      -0.05494998       0.16201994
C        2.45927906       0.13674995      -0.07012997
C        3.18680882       1.14310956       0.83009970
C        4.14105844      -0.02100999       1.12451959
O        3.22636890      -0.96018964       0.49482980
C        5.40650797      -0.01084000       0.41959986
C        6.44633770      -0.00677000      -0.17826994
H        0.60552979      -0.91322964      -0.40767986
H        0.41969985       0.82941967      -0.16404994
H        0.75136971      -0.22777992       1.21951950
H        2.69561911       0.25139990      -1.13568950
H        2.62053919       1.48586941       1.70203936
H        3.61049867       2.00760913       0.31145990
H        4.24212837      -0.23904991       2.19395924
H        7.36539698      -0.01332999      -0.71835971
