15
Properties=species:S:1:pos:R:3 pbc="F F F"
C       -0.02054999       0.84946966      -0.06212998
C       -0.73297971      -0.46566984      -0.12386996
C        0.77657974      -0.43543983      -0.04525998
C        1.55244946      -0.88409966       1.18652964
C        1.16277957      -2.08080935       2.02184939
N        2.29090929      -2.14872909       1.10939968
H        0.01456999       1.45338941      -0.96203959
H       -0.09364996       1.42241943       0.85488969
H       -1.17978954      -0.76379973      -1.06560957
H       -1.29058945      -0.78099972       0.74970973
H        1.29100955      -0.66102976      -0.98178965
H        2.08275938      -0.08726996       1.70335937
H        0.28838989      -2.65156913       1.73551941
H        1.38667953      -2.06760907       3.08049893
H        3.17716885      -2.07395911       1.61028945
