12

O    0.98240800  -0.19748400   0.26567200
C    2.32520400  -0.09172400   0.03355000
C    3.00255100   1.05316600   0.83521600
C    4.05751600   0.00971300   1.30555200
O    5.13309700   0.08009500   1.76518500
C    3.16834400  -1.15748100   0.78573900
H    0.46817500  -0.21854600  -0.55029200
H    2.59275500  -0.04784100  -1.03324400
H    2.42146000   1.32679600   1.73469000
H    3.43296700   1.94182000   0.35026900
H    3.72491800  -1.94939600   0.26301500
H    2.63758200  -1.55457700   1.67014400