16
Properties=species:S:1:pos:R:3 pbc="F F F"
C        0.81168967       0.09492996       0.08691996
C        2.29763913      -0.00328000       0.22334991
C        3.14548874       0.97311962      -0.13916995
C        4.64539814       0.97190964      -0.03814999
C        5.29352760      -0.26949990       0.56336981
O        5.15248823       1.14966953      -1.35761952
H        0.44376984      -0.70767975      -0.55946982
H        0.49638981       1.05090964      -0.34280989
H        0.34026986      -0.01007000       1.06880963
H        2.66975904      -0.93334967       0.64537978
H        2.73351884       1.89304936      -0.55410981
H        4.95229816       1.84524930       0.54779983
H        5.07559776      -1.16316950      -0.03237999
H        4.96152782      -0.43923983       1.59236932
H        6.38391781      -0.16077994       0.56720978
H        4.77884817       0.43407983      -1.90030921
