14
Properties=species:S:1:pos:R:3 pbc="F F F"
C        1.00847960      -0.01820999      -0.00192000
N        2.46316886       0.01274000       0.03144999
C        2.96069884       1.38567948       0.00000000
C        4.40469837       1.38567948       0.00000000
C        5.59485769       1.38567948       0.00000000
C        7.12750721       1.38592947      -0.00082000
C        8.32581711       1.38581944      -0.00106000
H        0.66524971      -1.05695963       0.02890999
H        0.61690974       0.43809983      -0.91694969
H        0.58101982       0.49503982       0.86555970
H        2.83163905      -0.48911983      -0.77562970
H        2.59354901       1.93537927       0.87441969
H        2.59236908       1.90243936      -0.89415967
H        9.39152622       1.38439941       0.00027000
