17
Properties=species:S:1:pos:R:3 pbc="F F F"
C        0.86825967      -0.01727999      -0.22611991
C        2.31956935       0.18943994       0.08228997
C        2.73188877      -0.01057000       1.50728941
O        3.20661879      -0.41569987      -0.87384963
C        3.15124869       1.02048957      -0.87999964
C        4.43619871       1.68468940      -0.52560979
O        5.30741835       1.63381946      -1.64940929
H        0.65506977       0.10419996      -1.29352951
H        0.25884992       0.70671976       0.32352987
H        0.55295980      -1.02441967       0.06479998
H        3.80513859      -0.19334993       1.61166942
H        2.21590900      -0.87355965       1.93999934
H        2.47377896       0.87217969       2.09959912
H        2.66034889       1.50397944      -1.71570933
H        4.94955778       1.21550953       0.31726989
H        4.26139879       2.73535895      -0.27616990
H        5.37119770       0.69285977      -1.89451921
