15
Properties=species:S:1:pos:R:3 pbc="F F F"
O        0.93790960      -0.00135000       0.00826000
C        2.37858891       0.00672000       0.01280000
C        3.04268885       1.05712962       0.93434966
C        4.12524843       0.00441000       1.24294949
C        3.07720876      -1.07951951       0.88885963
C        3.58003855      -2.23628902       0.17709993
C        4.00077868      -3.19786882      -0.40449986
H        0.69813973      -0.78565967      -0.51574981
H        2.75936913       0.06084998      -1.01629961
H        2.43521905       1.34020960       1.80163932
H        3.40030885       1.96365929       0.43917984
H        4.98658800       0.05510998       0.56514978
H        4.48915815      -0.00526000       2.27412915
H        2.46735907      -1.36421955       1.75796926
H        4.38001871      -4.05379820      -0.91497964
