13

C    1.18924000   0.12957700   1.08864000
C    1.95060900   0.39784900  -0.05657600
C    3.07903100   1.30497200  -0.04702100
C    2.78398800   2.80046500  -0.50460200
C    3.31590600   3.07236200   0.90698000
O    3.52585100   4.02791200   1.55314400
O    3.46964000   1.75209200   1.24361800
H    0.40268900  -0.63114600   1.07206700
H    1.38779900   0.66714400   2.02268400
H    1.70726100  -0.10083400  -1.00253000
H    3.92134700   0.89770300  -0.63862900
H    1.73042300   3.08151200  -0.64035000
H    3.39673400   3.15964500  -1.34137600