15
Properties=species:S:1:pos:R:3 pbc="F F F"
C        0.95903963      -0.01741999       0.12479995
C        2.47500920       0.00430000      -0.02501999
O        2.78509903       0.04729998      -1.43831944
C        3.17496872       1.09861958       0.84055966
C        4.12564850      -0.01220000       1.32095945
O        5.20918798      -0.01410999       1.86299932
C        3.20140862      -1.11727953       0.78016973
H        0.65599978      -0.04908998       1.17630959
H        0.53233981      -0.89502966      -0.37318987
H        0.51102984       0.87557971      -0.32576987
H        3.75516868       0.05956998      -1.51190948
H        2.57480907       1.52829945       1.64771938
H        3.66879869       1.89529932       0.28086990
H        3.71392870      -1.87069929       0.17772993
H        2.61230898      -1.60473943       1.56195939
