14

C    1.76469300  -0.41748200   0.01901600
O    2.59069600   0.23768800  -0.93059900
C    2.94301100   1.50912300  -0.74743900
C    4.32304300   1.51424800   0.25638900
C    4.77762200   2.84132300   0.40775300
C    5.14994400   4.00132700   0.51722000
H    1.21362600  -1.19381900  -0.52522000
H    1.07979900   0.29144400   0.50621000
H    2.41317100  -0.90865100   0.76590000
H    2.20176000   2.12306100  -0.21095800
H    3.29624400   1.94054600  -1.69264400
H    5.03659100   0.86133700  -0.26519800
H    3.95598400   1.07461100   1.19619300
H    5.49808900   5.01772700   0.62809700