13

C    0.93648600  -0.03728600   0.05479600
C    2.40525700   0.04930300   0.10855200
C    3.13278700   1.16622200  -0.19456400
C    4.51779600   1.14954200  -0.11328300
C    5.75155100   1.15862400  -0.04836900
C    7.11051100   1.13969000   0.03284600
O    7.88708600   2.09123300  -0.21603900
H    0.64511100  -0.85373900  -0.62831200
H    0.45843100   0.89820900  -0.25949100
H    0.55412300  -0.33743600   1.04575100
H    2.94881800  -0.85286700   0.41546200
H    2.64906700   2.09751200  -0.50728000
H    7.66814800   0.22276000   0.34515900