17
Properties=species:S:1:pos:R:3 pbc="F F F"
C        0.85421968       0.16894995      -0.06409997
C        2.37753916       0.02767999       0.02760999
C        2.74295902      -0.75772971       1.29004955
O        2.79342890      -0.75113970      -1.10106957
C        3.02738905       1.43281937       0.00000000
C        4.47091818       1.41018951       0.02894999
C        5.66068792       1.39153957       0.05281998
H        0.56432980       0.68122977      -0.98906964
H        0.44822985       0.73064971       0.78465968
H        0.37077984      -0.81427968      -0.09285996
H        2.46414900      -0.21203992       2.19866920
H        3.81553864      -0.97676963       1.32848954
H        2.23684931      -1.72970939       1.30210960
H        2.77402902      -0.18218994      -1.88910925
H        2.65200925       2.02588916       0.84314972
H        2.71252894       1.95330930      -0.91387969
H        6.72596741       1.36698949       0.07378997
