15
Properties=species:S:1:pos:R:3 pbc="F F F"
C        1.33821952      -0.38180983      -0.81812966
C        2.29485917      -0.07005997       0.06638997
C        3.03556871       1.22693956       0.09939996
O        4.42295837       0.92336965      -0.01057000
C        5.21367788       2.10474920      -0.02647999
C        6.66317749       1.70243943      -0.14323995
O        7.58108759       2.30976915       0.40318984
H        0.84678972      -1.34956956      -0.78312969
H        1.03007960       0.30851987      -1.59697950
H        2.57234907      -0.80018967       0.82331967
H        2.84271884       1.73399937       1.05125964
H        2.73090911       1.88270926      -0.72437972
H        5.07161808       2.67279887       0.89830965
H        4.95863819       2.71479893      -0.89854968
H        6.87308741       0.87936968      -0.84749973
