19

C    2.44922900  -0.82003000   1.33948100
C    1.87982300  -0.31784000   0.02167500
C    2.74192800   0.74969600  -0.66847400
N    4.07524600   0.26624500  -1.01484100
C    5.12864500   0.31940600  -0.22902000
C    6.43684600  -0.27113000  -0.65437400
N    4.99826900   0.98177200   0.92719100
H    1.72876800  -1.48105800   1.84167800
H    2.66298000   0.01125700   2.03150200
H    3.36830400  -1.41318300   1.20155500
H    0.89821300   0.15153800   0.18601300
H    1.70777800  -1.15458000  -0.67414000
H    2.88293500   1.61332100   0.00013500
H    2.27522600   1.08639400  -1.60344200
H    4.18168100  -0.22895800  -1.89961900
H    6.43758000  -0.53500500  -1.71948900
H    6.63271200  -1.17510100  -0.05670600
H    7.25025900   0.44360000  -0.46606700
H    5.61134300   0.64333700   1.67764200