20

C    1.47136400   2.19008400  -0.69390600
N    2.27254000   2.28931900   0.48748300
C    3.05857600   1.24317000   1.02567800
C    4.45836300   1.21384900   0.31332900
C    5.47017300   2.33853900   0.59038800
C    6.56242000   1.24520800   0.64446100
C    5.46272100   0.18208000   0.87229000
H    1.89945600   2.82944700  -1.48724700
H    0.46049800   2.57852400  -0.47987200
H    1.41441100   1.14927400  -1.03191600
H    2.39288800   3.22390500   0.88846900
H    2.55917500   0.27825200   0.85237400
H    3.21438700   1.41568400   2.10001900
H    4.29371200   1.06549100  -0.76543900
H    5.31717300   2.79665100   1.58073200
H    5.56870600   3.13555000  -0.15965500
H    7.06078200   1.11661300  -0.32590600
H    7.32601900   1.34345800   1.42642700
H    5.53403800  -0.77616200   0.34104300
H    5.30174600  -0.01488600   1.94279400