17
Properties=species:S:1:pos:R:3 pbc="F F F"
C        0.92413968       0.08737997       0.40595984
C        2.36412930       0.15200995      -0.09916996
C        3.27804875       1.09008956       0.72062975
C        3.92636847      -0.19071993       1.22950959
O        3.10251880      -1.01072967       0.37417984
C        2.43112922       0.39705986      -1.57251942
C        2.50680923      -0.61569977      -2.44399905
H        0.88875967      -0.09683996       1.48554945
H        0.36891985      -0.72136974      -0.08250997
H        0.39589986       1.02804959       0.21335991
H        2.78229880       1.68924940       1.48993933
H        3.95495844       1.73196936       0.14790994
H        4.98834848      -0.30251989       0.99400961
H        3.75301838      -0.41557986       2.28577900
H        2.40232921       1.42382944      -1.92500937
H        2.53337908      -1.65087938      -2.11266923
H        2.54994893      -0.43103984      -3.51239872
