21
Properties=species:S:1:pos:R:3 pbc="F F F"
C        1.95948923      -1.22751951      -1.58519936
C        2.96793890      -0.18775992      -1.13229954
C        2.32774901       1.18399954      -0.95767963
O        3.34969878       2.10522914      -0.58075976
C        2.86419892       3.41456890      -0.27224991
C        3.99723864       4.15158844       0.43298984
C        2.45487905       4.16543865      -1.53491950
H        2.44470906      -2.20173907      -1.70301938
H        1.51654947      -0.95122963      -2.54826903
H        1.15097952      -1.33642948      -0.85447967
H        3.78569865      -0.12227996      -1.85926938
H        3.42763877      -0.50097984      -0.18786994
H        1.55732942       1.14499950      -0.17838994
H        1.86947930       1.50060952      -1.90017927
H        2.01452923       3.34085894       0.41693985
H        4.88573837       4.21143866      -0.20613992
H        4.29784822       3.61280870       1.33871949
H        3.69955850       5.16647816       0.71579975
H        3.25251865       4.13463831      -2.28610921
H        2.21637917       5.21119833      -1.31606948
H        1.56951940       3.71350861      -1.99309933
