19
Properties=species:S:1:pos:R:3 pbc="F F F"
C        1.37200952      -0.77720970       0.78592968
C        2.40592909      -0.22006992      -0.20042992
C        3.32664871      -1.34408951      -0.68825978
N        1.71322930       0.50429982      -1.29585958
C        2.66706896       1.35494947      -2.02649927
N        0.90092963      -0.25884992      -2.08075905
C       -0.17924993       0.35658988      -2.43248892
H        0.71551973       0.01809999       1.15634954
H        1.87111938      -1.22280955       1.65373933
H        0.74602973      -1.55171943       0.32888988
H        3.01271892       0.49821982       0.36634985
H        2.77607894      -2.10184932      -1.25638950
H        3.79902864      -1.84751928       0.16295995
H        4.13147831      -0.95992965      -1.32268953
H        3.23321891       1.99637926      -1.34261942
H        2.12966919       2.02336907      -2.70879912
H        3.36773872       0.76400971      -2.62538886
H       -0.91476965      -0.15825994      -3.07001877
H       -0.42260987       1.38979948      -2.12613916
