17

C    0.92903500  -0.25398800   0.34755800
C    2.11667700   0.58245000  -0.04209900
C    2.93893200   1.30408700   1.03674400
C    4.02928100   0.26271300   0.62133600
O    3.27303900  -0.22455600  -0.41755300
C    5.45120700   0.50592400   0.40912500
C    6.07328500   0.31596900  -0.79153500
H    0.60350400  -0.87907400  -0.49516600
H    0.09832700   0.41028700   0.62562900
H    1.16548300  -0.90338400   1.20339200
H    1.88832900   1.23305900  -0.90610600
H    2.56988000   1.24820000   2.06737100
H    3.24245700   2.32938600   0.79000100
H    4.03330900  -0.51081200   1.45480400
H    6.01884200   0.81148300   1.29391400
H    5.51727300  -0.03072900  -1.66735300
H    7.14015800   0.52332400  -0.90509300