14
Properties=species:S:1:pos:R:3 pbc="F F F"
C        0.91256964       0.02283999      -0.00516000
C        2.38917923      -0.25796992       0.07136998
C        2.86450887      -1.51066947       0.16633993
C        3.30170894       0.93938965      -0.00231000
C        3.22020888       1.72780931       1.28329957
O        2.60490894       2.78467894       1.39570940
H        0.58657980       0.60856974       0.86010963
H        0.32109988      -0.89886969      -0.02397999
H        0.67908973       0.58448976      -0.91538972
H        2.19835925      -2.36865902       0.20424992
H        3.92971849      -1.71964943       0.20389992
H        3.02224898       1.58462930      -0.84202969
H        4.34867859       0.65187979      -0.14960995
H        3.73586845       1.27954948       2.15025926
