15
Properties=species:S:1:pos:R:3 pbc="F F F"
O        1.04633963      -0.07920997       0.22674991
C        2.48415923      -0.03267999       0.09359996
C        3.13891888      -0.97021961      -0.97318965
C        4.64157820      -0.74810970      -0.86083972
C        4.62571812       0.78102970      -0.82014972
C        3.11950874       0.97904962      -0.91635966
O        2.67365885       0.03497998      -1.98731923
H        0.75668973       0.84496969       0.15890993
H        2.94885898      -0.04844998       1.08649957
H        2.71807909      -1.96555924      -1.12263954
H        5.06327820      -1.18415952       0.04871998
H        5.18184805      -1.12885952      -1.73279941
H        5.15581799       1.21782947      -1.67199945
H        5.04236794       1.17700946       0.11010996
H        2.68144894       1.97291923      -1.00424957
