15
Properties=species:S:1:pos:R:3 pbc="F F F"
C        1.03421962       1.12908959      -0.44483984
O       -0.12770995       1.54490936       0.26642990
C       -1.27087951       0.87429971      -0.04385998
C       -1.45798945      -0.44501984      -0.16217995
C       -0.51321977      -1.58630931       0.06329998
C        0.94473964      -1.30096948       0.25130990
C        1.61197937      -0.15902995       0.04032998
H        1.78072929       1.91580939      -0.28120989
H        0.84933972       1.10472965      -1.52828944
H       -2.09547925       1.57549942      -0.11285996
H       -2.47531891      -0.76526970      -0.38510987
H       -0.61167973      -2.28468919      -0.77791965
H       -0.86427969      -2.12288904       0.95346963
H        1.52705944      -2.16336918       0.57806981
H        2.68865895      -0.15648994       0.19808993
