19

N    2.24038100  -0.58915900  -1.31475300
C    2.41314600  -0.10521600   0.00549200
C    3.16908100   1.22742300  -0.10858900
C    2.48832000   2.49853400  -0.59541900
C    3.13329300   3.26942900   0.56813100
C    3.38133300   1.99516700   1.39691500
N    4.56250200   1.80800000   2.05107200
H    1.55914700  -0.13826300  -1.91652600
H    3.03802200  -0.98367800  -1.80212300
H    2.99537400  -0.81667200   0.60919000
H    1.43782900   0.05181600   0.48992500
H    4.17421600   1.08962400  -0.53518000
H    1.39434500   2.44498100  -0.49338400
H    2.74049300   2.84148200  -1.60579500
H    4.08587100   3.73685200   0.27975300
H    2.50949600   4.01089400   1.08711400
H    2.52475900   1.67856900   2.00847100
H    5.42129600   2.23112800   1.71356600
H    4.64270500   1.17612100   2.84027700