15
Properties=species:S:1:pos:R:3 pbc="F F F"
C       -1.08142960      -0.00512000      -1.01942956
C       -0.53261983       1.00672960       0.04372999
C       -1.03307962      -0.04808998       1.08876967
C       -0.56654978      -1.07708967       0.00205000
C        0.92238969      -1.18559945      -0.03436999
C        1.57172942      -0.01282999      -0.02530999
O        0.91452968       1.20749962       0.01462999
H       -2.16870928       0.01711999      -1.16072965
H       -0.60110980       0.01229000      -2.00224924
H       -1.05048966       1.96970928       0.07520998
H       -0.50827980      -0.07029997       2.04840922
H       -2.11285925      -0.03267999       1.28047943
H       -1.07901955      -2.04166937      -0.00593000
H        1.42496955      -2.14356923      -0.06541997
H        2.64555907       0.11083996      -0.04741998
