11
Properties=species:S:1:pos:R:3 pbc="F F F"
C        1.00155962      -0.01354999      -0.05594998
C        2.49004912      -0.04835998       0.00063000
C        3.27464890      -0.74681973      -1.07859957
N        3.25825882       0.71112972      -0.97890961
H        0.61676979       0.74762970       0.62850976
H        0.59282976      -0.98144960       0.24796991
H        0.62955976       0.21345991      -1.05993950
H        2.87065887      -0.07688997       1.01478958
H        2.74157882      -1.16942966      -1.92120922
H        4.19906855      -1.24219954      -0.81105965
H        4.12798834       1.05929959      -0.57133979
