19

C    2.00508600  -0.25862700  -1.51896100
N    2.43841300   0.14510100  -0.19039400
C    3.19552500   1.36546800  -0.14553500
C    2.39432300   2.60037900  -0.60091500
C    3.05250100   3.76100400   0.14081600
N    3.58432100   3.14480200   1.32462300
C    3.53355400   1.72072300   1.31033500
H    1.52066500  -1.24120200  -1.45595100
H    2.83031100  -0.32444500  -2.25470300
H    1.25490900   0.44638100  -1.90694700
H    2.96285300  -0.61096400   0.24411900
H    4.14177700   1.32830700  -0.73144600
H    1.34902800   2.48530400  -0.27423200
H    2.40464300   2.75073500  -1.68689300
H    3.90749300   4.20928600  -0.40979400
H    2.39660400   4.60484300   0.41507400
H    3.94539700   3.68247600   2.11799700
H    4.44981500   1.28864400   1.74546200
H    2.68336400   1.39512300   1.95753400