12
Properties=species:S:1:pos:R:3 pbc="F F F"
C        0.99999964       0.00000000       0.00000000
C        2.44399905       0.00000000       0.00000000
C        3.63415861       0.00000000       0.00000000
C        5.06641817      -0.05903998      -0.09052996
N        5.62402773       1.09990954      -0.01415999
N        6.97452736       1.05553961      -0.13479994
H        0.60594976       1.02085960       0.01167999
H        0.60590976      -0.52052981       0.87823963
H        0.60592973      -0.50029981      -0.88992965
H        5.57147789      -1.02899969      -0.23292990
H        7.34919739       2.00540924      -0.07173997
H        7.40930748       0.53712982       0.63214976
