14
Properties=species:S:1:pos:R:3 pbc="F F F"
C        0.95030963      -0.00944000      -0.08293997
C        2.42703915       0.03190999       0.14012994
C        3.15871882       1.14886951       0.02829999
C        4.61573839       1.11035967       0.26698992
N        5.34093809       2.17879915       0.16121995
N        6.65251732       1.95706928       0.40870985
H        0.71533978      -0.70562977      -0.89386970
H        0.54353976       0.97195965      -0.34695986
H        0.44590983      -0.35512987       0.82454967
H        2.89650893      -0.91203970       0.40748984
H        2.73442912       2.11143923      -0.23292990
H        5.04498816       0.12838995       0.54033977
H        7.13385725       2.85703897       0.48477983
H        7.09549761       1.49457943      -0.38944986
