15
Properties=species:S:1:pos:R:3 pbc="F F F"
O        1.13449955       0.14987995       0.22833993
C        2.52142906      -0.03381999      -0.03987999
C        2.80269885      -1.46179938      -0.53525978
O        2.90737891      -1.39878953      -1.97540927
C        3.23538899      -0.03995999      -2.34284902
C        2.11583924       0.94847965      -2.43306923
C        2.94143891       0.84489971      -1.17243958
H        0.97627962       1.10820961       0.26135990
H        3.07094884       0.17302993       0.88378966
H        2.01762938      -2.17235923      -0.26295990
H        3.76869869      -1.81776929      -0.16246994
H        4.13176870       0.13740996      -2.92432880
H        2.25983906       1.81605935      -3.06565881
H        1.10289955       0.56203979      -2.43508911
H        3.64669871       1.61952937      -0.91468966
