15
Properties=species:S:1:pos:R:3 pbc="F F F"
C        1.00094962      -0.05364998       0.00304000
C        2.51999903       0.00000000       0.00000000
C        3.00201893       1.36116946       0.00000000
C        3.39929867       2.48306894       0.00000000
C        4.03459835       3.77063847       0.04759998
N        5.37704802       3.82692862       0.17480995
N        3.24984884       4.77656841      -0.05181998
H        0.65713972      -1.09290969       0.00180000
H        0.58512974       0.44312984      -0.88047963
H        0.58887976       0.43974984       0.89020967
H        2.89551878      -0.53272974      -0.88087964
H        2.89915895      -0.53415978       0.87843966
H        5.89871740       3.03262877      -0.17244993
H        5.76262760       4.72792816      -0.07926997
H        2.27540922       4.46805859      -0.13170995
