19
Properties=species:S:1:pos:R:3 pbc="F F F"
N        1.41798949       0.10204996      -1.43681955
C        1.97464919       0.20882992      -0.09125997
C        3.15631890       1.16251957       0.00770000
C        4.05550861       0.89245963       1.19760954
N        3.35044861       1.22333956       2.42762899
C        3.81586862       1.74774945      -1.23659956
C        2.93086910       2.61436915      -0.39192984
H        0.61421978      -0.52271980      -1.40653944
H        2.10394907      -0.35434985      -2.03551912
H        2.27511907      -0.79312968       0.23344991
H        1.18567967       0.54865980       0.58798975
H        4.97507811       1.48517942       1.14070952
H        4.35148859      -0.16231994       1.21237957
H        3.10027885       2.21146917       2.40692902
H        3.98661852       1.11179960       3.21542883
H        3.45266867       1.48800945      -2.22457910
H        4.88187838       1.94772923      -1.21931958
H        3.39745879       3.39742875       0.19265993
H        1.96079922       2.88874888      -0.79304969
