19
Properties=species:S:1:pos:R:3 pbc="F F F"
C        0.92430967      -0.02137999       0.19885993
C        2.42729902      -0.00548000      -0.06568997
C        2.72742891       0.01872999      -1.56371939
C        3.19220877       1.07141960       0.74821973
C        4.16604853      -0.01110000       1.25172949
O        5.49527788       0.00758000       0.69696975
C        3.20953894      -1.09352958       0.71663970
H        0.70304972      -0.03908999       1.27210951
H        0.45732981      -0.90497965      -0.25059992
H        0.44334984       0.86773968      -0.22420992
H        3.80258846       0.03101999      -1.76776934
H        2.29258919       0.90808970      -2.03370929
H        2.30792928      -0.86400968      -2.05938911
H        2.61537886       1.53671944       1.55609941
H        3.65114856       1.87185931       0.15830994
H        4.24257803      -0.02633999       2.34560919
H        5.37996817       0.02026999      -0.26776990
H        3.68076873      -1.86902928       0.10367996
H        2.64016891      -1.59131944       1.51040936
