15
Properties=species:S:1:pos:R:3 pbc="F F F"
C        1.90102923      -0.88772964      -1.02564967
C        1.74840939       0.08847997       0.13317995
C        2.67581916       1.27032959       0.00526000
C        2.25088930       2.53396916      -0.12516996
O        4.05636835       0.99890965      -0.05998998
C        4.61544800       0.54786980       1.10186958
O        4.07923841       0.36896989       2.18494916
H        1.19299948      -1.71544933      -0.91661966
H        2.90979886      -1.31184959      -1.05968964
H        1.70322931      -0.39703986      -1.98413920
H        1.92830932      -0.43648985       1.07749963
H        0.70478970       0.42679983       0.16753992
H        1.19477952       2.78199887      -0.11066996
H        2.95510888       3.35025859      -0.24634990
H        5.68534803       0.36258987       0.91408968
