13

C    1.92137000  -0.65122800  -1.26160100
C    2.17592300   0.04272600  -0.14805000
C    1.47450900  -0.14727000   1.09160500
N    0.94038400  -0.24203400   2.11318200
C    3.28538500   1.06524800  -0.04708300
C    3.53547700   2.04273400  -1.18815000
N    2.96222700   2.44979900   0.03374000
H    2.49440000  -0.49794500  -2.17936100
H    1.13523300  -1.40929800  -1.27523000
H    4.09668800   0.78878500   0.64485400
H    2.82910300   1.95875700  -2.02894500
H    4.51765600   2.46398100  -1.43593300
H    3.13208200   3.20502000   0.71201300