17
Properties=species:S:1:pos:R:3 pbc="F F F"
C        1.22023952       0.12740995      -0.22153993
N        2.66238904       0.05505998       0.06446998
C        3.15531898      -1.19809949       0.39101985
N        4.34809875      -1.67092943       0.28283989
C        3.44817853       1.21940947      -0.04611998
C        4.62371826       1.37550938       0.89801967
C        3.16801882       2.24407911      -0.87242967
H        0.79839969       1.08871961       0.09340996
H        0.65915978      -0.64813977       0.31173989
H        1.04488957      -0.00300000      -1.29474950
H        2.37329912      -1.88148928       0.76489973
H        4.94252777      -0.96125966      -0.14854994
H        4.38826847       0.96137965       1.88411927
H        4.87817812       2.43008900       1.05369961
H        5.51664782       0.88143963       0.50651979
H        2.33511925       2.21776915      -1.56568933
H        3.78611851       3.13687873      -0.89754969
