12
Properties=species:S:1:pos:R:3 pbc="F F F"
N        0.99108964       0.00839000       0.07669997
C        2.44967914       0.02968999      -0.07107998
C        3.08010888       1.01957965       0.91828966
O        3.93680859      -0.02468999       1.45657945
C        3.10031867      -1.03422964       0.82326967
H        0.54428983      -0.78397971      -0.38385984
H        0.52953982       0.84035969      -0.28979990
H        2.82655907       0.08133997      -1.09542954
H        2.43567896       1.43575943       1.70043933
H        3.66477871       1.82185936       0.45849985
H        3.70124865      -1.77819932       0.29323989
H        2.46585917      -1.53264952       1.56393945
