19

C    0.89674500  -0.28336500  -0.12601000
C    2.33902600  -0.61562300  -0.39418100
O    2.63693600  -1.12658600  -1.58896100
C    3.24172400   0.90370700  -0.25448500
C    4.69553400   0.66642100  -0.35437500
C    5.41356800   2.08229500  -0.46350400
O    5.08859600   2.74353100  -1.62367500
H    0.76679100   0.16156500   0.86763300
H    0.32517400  -1.22621500  -0.15644400
H    0.48313200   0.40265800  -0.88105000
H    2.86275600  -1.18551900   0.38840000
H    1.98034800  -0.88934800  -2.26408700
H    2.88624100   1.25396600   0.72421800
H    2.81645600   1.49330700  -1.07769900
H    4.96873500   0.10014500  -1.25569900
H    5.10276400   0.15575100   0.53028200
H    6.49039800   1.85657600  -0.36925400
H    5.11202100   2.70209200   0.39229300
H    5.67438100   2.47928900  -2.34128800