15

C    1.14188500  -1.18875800   0.63258200
C    2.43442900  -0.55970100   0.36163400
C    2.73400600   0.77453500   0.05450600
C    1.91095200   1.91690800   0.19836400
C    0.79406300   2.03589100   0.99694100
C    4.14222100   1.00775400  -0.48428100
O    4.99854200   0.18847700  -0.33739000
H    1.07789700  -2.14132200   0.07967600
H    0.26201700  -0.57230000   0.42123300
H    1.13858300  -1.50128900   1.69755200
H    3.31293800  -1.22070200   0.33873700
H    2.25393900   2.82139700  -0.31913300
H    0.44547200   1.23527000   1.65283800
H    0.23967000   2.97785100   1.02484100
H    4.31384500   1.98570700  -0.98719000