15

C    0.87625100  -0.03400000  -0.04946000
C    2.35510100  -0.15958100   0.02964300
C    3.01729000  -1.25376800   0.52323500
C    3.14784200   0.99647400  -0.40371800
O    2.49309500   1.85390000  -1.19111700
C    3.30749200   1.70278800   1.19552200
O    2.48037900   2.43177800   1.57113800
H    0.54193100   0.86327700   0.50193800
H    0.36881100  -0.91653900   0.35612400
H    0.57093600   0.12926100  -1.09531800
H    2.46770400  -2.15136200   0.81836300
H    4.10801600  -1.28486500   0.61074700
H    4.20398000   0.79969100  -0.65730800
H    3.07686400   2.49453500  -1.61871000
H    4.23893400   1.37764900   1.70796800