17
Properties=species:S:1:pos:R:3 pbc="F F F"
C        0.98281962       0.03771999      -0.02031999
C        2.50711894       0.01765999      -0.00885000
C        3.06821895      -1.23642945       0.67777973
O        3.55156851      -0.86275971       1.98728919
C        3.64060879       0.51012981       1.91960931
C        3.09094906       1.08217967       0.85325968
C        3.03115869       2.52696919       0.52646983
H        0.59381980      -0.80194968      -0.60605973
H        0.60756975       0.96263969      -0.47115982
H        0.56706977      -0.03674999       0.99076962
H        2.87966895       0.07637997      -1.03786969
H        3.92154860      -1.63621938       0.11562996
H        2.32943916      -2.03767920       0.78447974
H        4.11630821       0.97519964       2.76716900
H        2.91509891       2.67806888      -0.55229974
H        3.95061851       3.03716874       0.83191973
H        2.18354917       3.00160885       1.03112960
