15
Properties=species:S:1:pos:R:3 pbc="F F F"
C        1.07265961      -0.14606994      -0.15659994
N        2.49079895       0.00200000       0.14029995
C        2.96069884       1.38567948       0.00000000
C        2.44290900       2.27707911       1.13081956
C        4.40469837       1.38567948       0.00000000
C        5.59485769       1.38567948       0.00000000
H        0.80496973      -1.20703959      -0.10993996
H        0.82985967       0.21348992      -1.16161954
H        0.44605982       0.37266988       0.57400978
H        3.01910901      -0.57958978      -0.51009983
H        2.61719894       1.79560935      -0.95838964
H        2.71741891       1.88012934       2.11608911
H        1.35340953       2.38178921       1.09932959
H        2.86657906       3.28635883       1.05724967
H        6.66024733       1.38114953       0.00695000
