17
Properties=species:S:1:pos:R:3 pbc="F F F"
O        1.02493966       0.02844999       0.13375995
C        2.44971919       0.02616999       0.02952999
C        2.89979887      -1.32009947      -0.52800977
C        2.54875898      -1.44114947      -2.00436926
O        3.10485888      -0.34972987      -2.74204898
C        2.55419898       0.89943963      -2.32301903
C        2.90280890       1.17559958      -0.86629963
H        0.76661974       0.84593970       0.59459978
H        2.84785891       0.15584995       1.04225969
H        2.43638897      -2.14373922       0.02482999
H        3.98701835      -1.39879954      -0.41480985
H        2.97160888      -2.36508894      -2.41178894
H        1.46416938      -1.47799945      -2.16417909
H        2.98106885       1.68012941      -2.96021891
H        1.46996939       0.89748967      -2.48775911
H        3.99025846       1.27920949      -0.77585971
H        2.44169903       2.11844921      -0.55379981
