16
Properties=species:S:1:pos:R:3 pbc="F F F"
C        0.41534984       1.37338948       0.32358989
C        1.38637948       0.38263986      -0.31301990
C        1.05056965      -1.05854952       0.07993997
C       -0.42106983      -1.35120952       0.04207999
C       -1.35658956      -0.39417985      -0.04278998
C       -1.03172958       1.07074952      -0.07383997
H        0.67275977       2.39667916       0.02735999
H        0.51331979       1.32471943       1.41581953
H        2.41420913       0.61647975      -0.01330000
H        1.34266949       0.48432982      -1.40495956
H        1.41723943      -1.26110947       1.09335959
H        1.57609940      -1.74368942      -0.59509975
H       -0.72168976      -2.39548922       0.08232997
H       -2.40681911      -0.67189974      -0.08810997
H       -1.22383952       1.44572949      -1.08611953
H       -1.70669937       1.60813940       0.60159981
