19
Properties=species:S:1:pos:R:3 pbc="F F F"
C        2.93288898      -1.06800961       0.68940973
C        2.67810893      -0.09071997      -0.45526981
C        3.07608891       1.37286949      -0.16080993
C        2.71345878       2.25395918      -1.36028945
O        2.30969906       1.84726930       0.94444966
C        4.55869818       1.50610936       0.12452996
C        5.13266802       2.09964919       1.18140960
H        2.63389897      -2.07692933       0.38865983
H        2.35252905      -0.80308974       1.57750940
H        3.99103856      -1.10259950       0.96200967
H        1.60472941      -0.13128994      -0.68453974
H        3.20835876      -0.45089981      -1.34706950
H        3.24554873       1.94931936      -2.26791906
H        2.94705892       3.30621886      -1.16058958
H        1.63665938       2.21246934      -1.56174946
H        2.62024903       1.37603951       1.73476934
H        5.21744776       1.07996964      -0.63217974
H        4.55160856       2.57748914       1.96354926
H        6.21341753       2.14221931       1.27179956
