10

C    0.92681900  -0.09615500   0.00239100
C    2.44276800   0.06200400   0.00177700
C    2.98599700   1.36823400   0.00097600
C    3.48386600   2.51444100  -0.00049200
H    0.68155100  -1.16513400   0.00110500
H    0.48228600   0.36621600  -0.88949500
H    0.48369700   0.36362400   0.89634300
H    2.94769300  -0.46235600  -0.85046200
H    2.94951000  -0.46435500   0.85131200
H    3.91881400   3.50914800  -0.00164500