17

C    1.09259100  -0.18871000   0.25565000
C    2.52900400   0.11482200  -0.11470400
C    3.19945400   1.25380400   0.68692600
C    4.55063500   0.74570400   1.18115800
O    5.62210400   0.84483400   0.40489100
C    4.04708500  -0.96742400   1.24879200
O    3.38358200  -1.04500500   0.11245000
H    0.71161600  -1.03541600  -0.32971700
H    0.47077100   0.69031800   0.03545400
H    0.99730600  -0.41918700   1.32756800
H    2.61133000   0.27639900  -1.19873500
H    2.59950500   1.52447700   1.56821300
H    3.32450300   2.16874100   0.08945500
H    4.83392900   0.96030700   2.22074700
H    5.41406600   0.85909700  -0.54283600
H    4.88246500  -1.67319400   1.32049300
H    3.44639300  -0.84722800   2.17163000