15

C    0.97248300   0.11540300  -0.11724500
O    2.40937600   0.14550100  -0.24132700
C    3.05899200   1.24116400  -0.14321800
C    4.45480400   1.33193200  -0.25491600
C    4.81136600   2.74510700  -0.08510300
O    3.62231800   3.45824700   0.12270800
C    2.51523600   2.61377800   0.10095500
H    0.68559800  -0.93208100  -0.24192000
H    0.52552700   0.73379900  -0.90802000
H    0.68539600   0.47718800   0.87985500
H    5.13738800   0.50003900  -0.43445500
H    5.51375200   2.88779500   0.76584900
H    5.35897100   3.13591300  -0.97119100
H    1.80023300   2.90702600  -0.69517200
H    1.95640300   2.65702100   1.05846900