15
Properties=species:S:1:pos:R:3 pbc="F F F"
O        0.78792971       0.11043996      -0.13997994
C        2.16678929       0.00704000       0.25105992
C        3.04377890      -0.90493965      -0.56728983
C        2.60046887      -1.43587947      -1.89333928
C        2.78896904      -0.25888991      -2.84921885
O        2.72423887       0.93584967      -2.04235935
C        3.17044878       0.57911980      -0.70708972
H        0.67575979       0.85014969      -0.76785976
H        2.38706923       0.08688997       1.30965960
H        3.83939862      -1.45917940      -0.09500997
H        3.18442893      -2.30428910      -2.21707916
H        1.54761946      -1.73954940      -1.85472929
H        3.77652860      -0.28975990      -3.31977892
H        2.02298927      -0.22655991      -3.62686872
H        4.04880857       1.06840956      -0.30710989
