14
Properties=species:S:1:pos:R:3 pbc="F F F"
C        2.61319900       0.12096996      -1.50143933
O        3.75602865       0.80666965      -1.00434959
C        3.56435871       1.76865935      -0.03944999
C        2.37972903       2.19132924       0.43050984
C        4.79873800       2.33656907       0.48202983
C        6.03467798       2.00276923       0.08796997
H        2.95464897      -0.60908973      -2.24009895
H        1.92692935       0.81062973      -2.00314927
H        2.10629916      -0.42277983      -0.69895977
H        1.43367946       1.80353928       0.07430997
H        2.31690907       2.95667887       1.19740951
H        4.69981813       3.09272885       1.25790954
H        6.21136761       1.25739944      -0.68158978
H        6.90434742       2.47434902       0.53372985
