10
Properties=species:S:1:pos:R:3 pbc="F F F"
O        1.03916955       0.00562000       0.21117993
C        2.24448919      -0.00577000       0.08018997
C        3.34564877       1.06206965       0.00460000
N        4.23295832      -0.00876000      -0.49627984
C        3.31601882      -1.09267962      -0.08140997
H        3.63238883       1.46582937       0.97874963
H        3.15496898       1.87040925      -0.70400971
H        4.36575842       0.02927999      -1.51019943
H        3.10557890      -1.83671927      -0.85046971
H        3.59190869      -1.57986939       0.85858965
