13
Properties=species:S:1:pos:R:3 pbc="F F F"
C        0.99181962      -0.00829000       0.08697996
C        2.51999903       0.00000000       0.00000000
C        2.97996879      -0.74067974      -1.26169956
C        4.41677809      -1.04485965      -1.21374953
N        5.54573822      -1.30298960      -1.16143954
C        3.00201893       1.36116946       0.00000000
N        3.38622880       2.44615912       0.00000000
H        0.64681977       0.51277977       0.98751962
H        0.60914975      -1.03378963       0.12791994
H        0.53716981       0.48893982      -0.77789968
H        2.90532899      -0.51937979       0.88728964
H        2.75458884      -0.15695995      -2.16331911
H        2.43411899      -1.68813944      -1.35408950
