21
Properties=species:S:1:pos:R:3 pbc="F F F"
C        0.93401963      -0.13453995      -0.06575997
C        2.43566918       0.12418996      -0.01307000
C        2.90004897       1.57343948      -0.07240997
C        2.05621910       2.61737895      -0.16974995
C        4.42019844       1.74321926      -0.00079000
C        5.04325819       1.60907936      -1.39259946
C        4.89286804       3.04546881       0.65665972
H        0.73846972      -1.21064961      -0.01008000
H        0.49786982       0.23422992      -1.00017965
H        0.41728985       0.34020987       0.77505970
H        2.89879894      -0.42425984      -0.84170967
H        2.81759906      -0.31933987       0.91490960
H        0.97932959       2.49438906      -0.21672992
H        2.40857911       3.64180851      -0.22000991
H        4.81509829       0.93199962       0.62523979
H        4.68738842       2.39646912      -2.06749940
H        4.80275822       0.64237976      -1.84829938
H        6.13519812       1.68317938      -1.33744955
H        4.66825819       3.92385864       0.04147998
H        5.97851801       3.02347875       0.80692971
H        4.42732811       3.18275881       1.63940930
