10
Properties=species:S:1:pos:R:3 pbc="F F F"
N        1.05399954      -0.29544988       0.00000000
C        2.39570928      -0.03803999       0.00000000
C        3.05351877       1.13798952       0.00000000
C        2.35051918       2.35561895       0.00000000
N        1.77501929       3.35242867       0.00000000
C        4.45951843       1.13798952       0.00000000
N        5.61052799       1.13798952       0.00000000
H        0.71422976      -1.25371945      -0.00000000
H        0.36609986       0.45452982      -0.00000000
H        2.96833897      -0.96778959       0.00000000
