12
Properties=species:S:1:pos:R:3 pbc="F F F"
C        0.99999964       0.00000000       0.00000000
C        2.19015908       0.00000000       0.00000000
C        3.63415861       0.00000000       0.00000000
C        4.01262856       1.44334948       0.06656998
C        4.22582865       2.14775920       1.38236940
O        5.32804775       1.68106937       0.59114975
H       -0.06588998      -0.00179000      -0.00033000
H        4.03322840      -0.44815984      -0.91535968
H        4.03079844      -0.56292981       0.85161972
H        3.71659851       2.01765919      -0.80220973
H        4.00744820       1.61884940       2.30139923
H        4.05675840       3.21616888       1.42341948
