16

C    0.98554500   0.02713500  -0.03762500
C    2.51494100  -0.02251400   0.01626900
C    3.06886100  -0.69822600   1.27363300
C    3.06157400  -0.78896300  -1.27624700
N    3.05622700   1.27804500  -0.12429600
H    0.62185700   0.51542100  -0.95408900
H    0.58736400   0.55904300   0.83794800
H    0.59357300  -0.99802200  -0.02475000
H    2.71322700  -0.18114200   2.17599300
H    4.16891600  -0.71957500   1.27846900
H    2.71239900  -1.73574700   1.30885900
H    2.69391200  -0.32256000  -2.19891400
H    2.65101500  -1.80524000  -1.18616800
H    4.15799500  -0.83234100  -1.27741400
H    2.57838600   1.99847900  -0.67436200
H    3.99507500   1.50527800   0.21755500