15
Properties=species:S:1:pos:R:3 pbc="F F F"
C        1.17267954      -0.08318996       0.71978974
C        2.51999903       0.00000000       0.00000000
N        2.39624929      -0.48091984      -1.38642943
N        2.08559918      -1.79480934      -1.54732931
C        1.89062929      -2.12304902      -2.78109908
C        3.00201893       1.36116946       0.00000000
C        3.39929867       2.48306894       0.00000000
H        1.25564957       0.29442990       1.74576938
H        0.81374973      -1.11646962       0.77865970
H        0.40528983       0.51366979       0.21226992
H        3.24146891      -0.63479978       0.52932978
H        3.26811886      -0.25094992      -1.87014937
H        1.63059938      -3.16362882      -3.03088880
H        1.96225917      -1.41272938      -3.62329841
H        3.75007868       3.48928857       0.00024000
