11
Properties=species:S:1:pos:R:3 pbc="F F F"
C        1.74803936      -0.62173975       1.05444968
C        2.47563910      -0.09213997       0.06149998
C        3.15491867       1.24442947       0.12348996
C        4.60491848       1.07532966      -0.03926999
C        5.79158783       0.94323963      -0.17169994
H        1.28096950      -1.59534943       0.94101965
H        1.60729945      -0.10513996       1.99880934
H        2.58468890      -0.65177977      -0.86556965
H        2.94333887       1.75130928       1.07198966
H        2.75980902       1.88057935      -0.67643976
H        6.84423780       0.82272965      -0.28762987
