19
Properties=species:S:1:pos:R:3 pbc="F F F"
C        1.46098948      -1.08773959      -0.52879983
C        1.18067956       0.13351995       0.33615988
C        2.33795905       0.44507983       1.29476953
O        2.18953919       1.72361934       1.91550934
C        1.04608953       1.84463930       2.74854898
O        2.46050906      -0.61175978       2.24651909
C        3.68149877      -0.53500980       2.96984887
H        0.62426972      -1.26587963      -1.21127951
H        1.59473932      -1.98527932       0.08238997
H        2.36343908      -0.94218969      -1.13023949
H        0.26163989      -0.06024998       0.90233970
H        0.98516965       1.00226963      -0.30367988
H        3.25998878       0.49558982       0.70201975
H        1.10671961       2.80656886       3.26622891
H        1.01373959       1.05349958       3.50328875
H        0.12759995       1.84307921       2.15520930
H        3.71495867      -1.37138951       3.67361856
H        3.74163866       0.39715984       3.53963852
H        4.53669786      -0.61909980       2.29196930
