17
Properties=species:S:1:pos:R:3 pbc="F F F"
C        1.01003969       0.01599999      -0.08226997
C        2.48134923       0.12784995       0.09348996
O        3.24952888      -0.64662975      -0.82870966
C        3.34540868       0.78619969      -0.95801967
C        4.52884865       1.54812932      -0.51601982
C        4.25530815       2.92029881       0.03937998
C        5.78639793       1.08344960      -0.60928977
H        0.51156980       0.88313967       0.36241984
H        0.63737977      -0.88439971       0.41640985
H        0.72351968      -0.03669998      -1.13824952
H        2.79031897       0.13142994       1.12964964
H        2.85424876       1.21505952      -1.82625937
H        3.73383856       3.53302884      -0.70353973
H        5.17530823       3.44533873       0.31770989
H        3.62728858       2.85129881       0.93364966
H        5.98275757       0.09456997      -1.01452959
H        6.64192772       1.66545939      -0.28342989
