15

C    0.92728700   0.23512500   0.02242600
C    2.39871900  -0.11050500  -0.08808200
N    2.74717500  -0.81740100  -1.23417100
C    3.28518100   1.24728700  -0.09919700
C    3.93025400   1.65226500   1.15361200
O    4.62798700   1.08011300   0.04566700
H    0.75873500   0.85786500   0.91015200
H    0.32937100  -0.68091500   0.12779300
H    0.57504500   0.79105900  -0.85936500
H    2.79658100  -0.64323800   0.79337700
H    2.16582900  -0.80217500  -2.07453900
H    3.66579500  -1.25792800  -1.31499600
H    2.92969900   1.93472100  -0.87867300
H    3.83316100   1.00436700   2.03171500
H    4.14919800   2.70688800   1.34348100