17
Properties=species:S:1:pos:R:3 pbc="F F F"
C        0.96257961       0.04988998      -0.01522999
C        2.48110890      -0.02674999       0.02104999
C        3.09391880       1.06204963       0.88989967
O        4.41722822       0.60152978       1.19445956
C        4.31844807      -0.81884968       1.39079940
C        3.08834887      -1.24659956       0.64988977
C        2.61688900      -2.50077915       0.61010981
H        0.54483980      -0.71735972      -0.67523974
H        0.63572973       1.02546966      -0.39021987
H        0.52859980      -0.09057997       0.98095959
H        2.88161898       0.06358998      -0.99704963
H        2.55087900       1.21043944       1.83109939
H        3.15735865       2.02247930       0.36884984
H        5.22581816      -1.28564954       0.99837959
H        4.22922850      -1.01316965       2.46435928
H        1.71454942      -2.75505900       0.06365997
H        3.13260889      -3.31078887       1.11734962
