15

C    1.00421300   0.02478300   0.11158300
C    2.32896200  -0.01712200   0.02472800
C    3.25762400   1.17208200   0.03231400
O    4.54045900   0.61995000  -0.40525100
C    4.51622600  -0.65864900  -0.49230800
C    5.69579000  -1.32276200  -0.89685900
C    3.19915900  -1.24604600  -0.12794100
H    0.40527600  -0.88813900   0.09984200
H    0.46905200   0.97244500   0.20478700
H    3.44614700   1.60837900   1.02553900
H    3.00648900   1.97420600  -0.67438100
H    5.71121400  -2.41134400  -0.97651900
H    6.59086700  -0.74048600  -1.12995200
H    2.85324500  -1.96266000  -0.89042000
H    3.31555800  -1.82001600   0.81193800