12
Properties=species:S:1:pos:R:3 pbc="F F F"
N        0.99999964       0.00000000       0.00000000
C        2.15100908       0.00000000       0.00000000
C        3.59500861       0.00000000       0.00000000
C        4.19652843      -1.24501944       0.63774979
N        4.54406834      -0.76857972       1.97312927
N        4.69042826       0.57564980       2.01729918
C        4.12289858       1.02783954       0.94636965
H        4.00149822       0.18155994      -0.99915963
H        5.11086845      -1.53413939       0.10712996
H        3.52272868      -2.10631919       0.67225975
H        5.31371784      -1.27577949       2.41375923
H        4.04039860       2.10024929       0.71658975
