19
Properties=species:S:1:pos:R:3 pbc="F F F"
C        0.79138970       1.44135940       0.80504972
N        1.77397931       0.95700967      -0.15086995
C        3.14685869       1.47992945       0.08806997
C        3.93010855       0.88092971       1.25617957
N        3.66833854      -0.55456978       1.37453949
C        3.92809844       1.83413935      -1.16108954
C        3.42405868       2.92435884      -0.26643988
H        1.06618965       1.19837964       1.83557940
H       -0.17798993       0.97833967       0.59695977
H        0.66160971       2.52465916       0.71932977
H        1.82142937      -0.06340998      -0.12886995
H        3.64210844       1.38151944       2.18709922
H        5.00665808       1.03525960       1.12070966
H        2.71651888      -0.67469972       1.71633935
H        4.27179813      -0.93610966       2.10087919
H        3.44299865       1.70328939      -2.12236905
H        4.99350786       1.63827944      -1.18272960
H        4.14922857       3.47270870       0.32358989
H        2.60482907       3.53407884      -0.63047975
