15
Properties=species:S:1:pos:R:3 pbc="F F F"
C        2.39976931      -0.56908977       1.42863941
C        2.55400896      -0.05862998       0.00902000
C        2.97379875       1.38929951       0.00518000
O        2.18264937       2.32378936       0.04599998
C        4.39715815       1.65321946       0.00000000
C        5.56738806       1.87010920       0.00000000
C        6.98720741       2.13325930       0.00000000
H        2.07139921      -1.61257946       1.42533946
H        1.66111946       0.02186999       1.97970915
H        3.34690881      -0.50947982       1.97418916
H        1.60369945      -0.14085995      -0.53099978
H        3.28794885      -0.65908974      -0.54015976
H        7.18865728       3.20879865      -0.01320000
H        7.46974707       1.69189942      -0.87744969
H        7.46553707       1.71438932       0.89068967
