16
Properties=species:S:1:pos:R:3 pbc="F F F"
C        0.94996965       0.02259999       0.11161996
C        2.47020888      -0.02509999      -0.05829998
C        2.82297897      -0.81561965      -1.32169950
C        3.04041886       1.40279949      -0.09839997
C        4.50917816       1.41946948      -0.00740000
C        5.70891809       1.43882942       0.06798998
H        0.67774969       0.54388982       1.03546965
H        0.53225982      -0.98840964       0.16491994
H        0.47227982       0.54329979      -0.72535974
H        2.88960910      -0.55749983       0.80560970
H        2.43901920      -0.32027987      -2.22006917
H        2.39181900      -1.82176924      -1.28137958
H        3.90613866      -0.92761970      -1.43252945
H        2.63644910       1.98232925       0.74096972
H        2.72047901       1.91252923      -1.01524961
H        6.77207756       1.45581937       0.13462995
