19
Properties=species:S:1:pos:R:3 pbc="F F F"
C        0.97559965       0.03113999      -0.02158999
C        2.49990916       0.00943000       0.00046000
C        3.05400896      -1.27126944       0.64482975
C        3.38756871      -0.91060966       2.09235930
C        3.56231856       0.56920981       2.02787924
C        3.07338905       1.07885957       0.88882965
C        3.06386876       2.51565909       0.50229985
H        0.59029979      -0.78916967      -0.63674974
H        0.60280979       0.97003967      -0.44491985
H        0.55174983      -0.07575997       0.98338962
H        2.88424897       0.10124996      -1.02160966
H        3.97712851      -1.56673944       0.12703995
H        2.36731911      -2.12224913       0.58126980
H        4.29795837      -1.41606939       2.42538905
H        2.56813908      -1.16696954       2.77113891
H        4.00352859       1.15097952       2.82599878
H        2.77615881       2.63808894      -0.54668981
H        4.05770826       2.95832896       0.62502974
H        2.34916925       3.07385874       1.11490953
