14
Properties=species:S:1:pos:R:3 pbc="F F F"
C        0.96907967       0.03397999      -0.07267997
C        2.48103905      -0.01161000       0.08069997
O        2.84368896      -1.21932948       0.77938968
C        3.38619876      -0.86336970       2.06275916
C        3.52658868       0.61043978       2.04191923
C        3.01030898       1.09826958       0.91621965
H        0.62199980      -0.82483965      -0.65757972
H        0.64343971       0.95191962      -0.57251978
H        0.46769980      -0.03045999       0.90070969
H        2.96520901      -0.02801999      -0.90137970
H        4.34866858      -1.36640954       2.18985915
H        2.69462895      -1.19292963       2.84388900
H        3.97372866       1.19198954       2.83450890
H        2.97321892       2.14143920       0.64044976
