17
Properties=species:S:1:pos:R:3 pbc="F F F"
C        1.03883958       0.23969990      -0.08430997
C        2.56745887       0.13761996      -0.01520999
C        2.98361874      -0.70916975       1.19300961
C        3.10264874      -0.45083982      -1.33032954
O        4.51004839      -0.66179973      -1.28302956
C        3.12404871       1.53860939       0.18900993
O        4.09325838       1.98468924      -0.42103985
H        0.72340977       0.88048971      -0.91570961
H        0.62501973       0.67372978       0.83310968
H        0.58195978      -0.74575973      -0.22428991
H        2.56963921      -0.30245990       2.12294912
H        4.07195854      -0.73163974       1.31320953
H        2.63081908      -1.74267936       1.09162962
H        2.88667893       0.20397992      -2.18274927
H        2.63767910      -1.42140949      -1.53400946
H        4.91484833       0.22594991      -1.18653953
H        2.63917899       2.13910913       0.97830963
