15
Properties=species:S:1:pos:R:3 pbc="F F F"
N        0.98715961       0.01977999      -0.04185998
C        2.44191909       0.00916000       0.02581999
C        2.99972892       1.11848962       0.89068967
C        4.40543842       0.61894977       1.15708959
O        4.34605837      -0.81419969       1.18068957
C        3.05433893      -1.21774948       0.69572973
H        0.66381979      -0.74156970      -0.63777977
H        0.66850972       0.88364971      -0.47925982
H        2.85173893       0.10644995      -0.98752964
H        2.44876909       1.18876958       1.83802938
H        2.98221898       2.10324931       0.41401982
H        5.08763838       0.91118962       0.35157987
H        4.80799818       0.98736966       2.10499930
H        3.16524887      -2.06078935       0.00643000
H        2.46640921      -1.55053937       1.55944943
