17
Properties=species:S:1:pos:R:3 pbc="F F F"
C        0.94918966       0.10141996      -0.12537995
C        2.46140909       0.01595999      -0.06033998
O        2.98888874       1.33936954      -0.05930998
C        4.41400862       1.33854949       0.00000000
C        4.89601851       2.69972897       0.00000000
C        5.29330778       3.82161856       0.00000000
C        5.77048779       5.20346832      -0.00032000
H        0.50237983      -0.89636964      -0.12805995
H        0.63213974       0.63357979      -1.02789962
H        0.55814981       0.66203976       0.72954971
H        2.84043908      -0.53362978      -0.92935961
H        2.76532912      -0.50505984       0.85449970
H        4.81161785       0.79572970      -0.86497968
H        4.73782825       0.82196969       0.91061968
H        4.97030830       5.89252806      -0.28890988
H        6.59776735       5.33025837      -0.70595974
H        6.12554789       5.49373817       0.99369961
