17
Properties=species:S:1:pos:R:3 pbc="F F F"
C        1.00934970       0.04636998       0.02958999
C        2.49447894       0.01144000      -0.03606999
C        3.26967883      -1.07825959      -0.12841995
C        4.72084856      -0.72973973      -0.08978996
C        4.71845818       0.78192973      -0.30579987
C        3.31430888       1.25962961       0.07244997
O        2.86591887       2.24463916      -0.84069967
H        0.58186978      -0.96137965       0.00008000
H        0.59919977       0.60849983      -0.81486970
H        0.67985970       0.52365983       0.95838964
H        2.90547895      -2.09543920      -0.17651993
H        5.15021849      -0.99838966       0.88092971
H        5.28190804      -1.23964953      -0.87880969
H        4.94836807       1.01650965      -1.35352945
H        5.48744774       1.27413952       0.29983988
H        3.28294873       1.66601944       1.08847964
H        2.73413897       1.80059934      -1.69577932
