19
Properties=species:S:1:pos:R:3 pbc="F F F"
C        0.86428970      -2.32904911      -1.42751944
C        2.04871917      -1.89036930      -0.58142978
C        1.87021923      -0.46591982      -0.06283998
C        3.03751874      -0.03887999       0.82257968
O        2.81811905       1.31645954       1.21888959
C        3.74062848       1.88186932       2.05158925
C        4.83784819       1.33863950       2.59060907
H        1.02492964      -3.34276867      -1.80690932
H        0.72537971      -1.66296935      -2.28453922
H       -0.05801998      -2.32915902      -0.83845967
H        2.96360898      -1.95341933      -1.18271947
H        2.16581917      -2.58321905       0.26023990
H        0.93604964      -0.38246986       0.50659978
H        1.77312934       0.23347990      -0.90262967
H        3.97692847      -0.11262996       0.26177990
H        3.08146882      -0.68671972       1.70624936
H        3.45882869       2.91161895       2.24632907
H        5.13855791       0.31358987       2.41546893
H        5.47070789       1.93292928       3.24195886
