17
Properties=species:S:1:pos:R:3 pbc="F F F"
C        0.36807987      -0.89209962       1.15057957
C        1.69727933      -1.23400950       0.47960982
C        1.66539931      -2.66162896      -0.07003997
C        2.01468921      -0.21551992      -0.62375981
O        3.27415895      -0.50286978      -1.25388956
C        4.36990833      -0.01353000      -0.62445974
O        4.39379835       0.63037974       0.41161984
H        0.39751986       0.11493996       1.57981944
H        0.14948995      -1.59458935       1.96180928
H       -0.46037984      -0.93225968       0.43539983
H        2.48808908      -1.19519961       1.23888958
H        0.90971971      -2.76745892      -0.85594964
H        1.42973948      -3.37779856       0.72448975
H        2.63543916      -2.94439888      -0.49144983
H        2.00613928       0.81089967      -0.23621991
H        1.25214946      -0.25841990      -1.41008937
H        5.26551819      -0.29294989      -1.20052958
