13
Properties=species:S:1:pos:R:3 pbc="F F F"
O        0.97282964      -0.02473999      -0.18369994
C        2.35570908      -0.02788999       0.06912997
C        2.98639870      -1.20930958      -0.58359975
C        3.97398853      -0.89329964      -1.43045950
C        4.20554829       0.57803977      -1.55043948
C        3.11347890       1.09113955      -0.64095974
O        2.84036875       2.28176904      -0.50124979
H        0.67142975       0.88446963      -0.00034000
H        2.55955911      -0.00673000       1.14307952
H        2.66178894      -2.22024918      -0.37654987
H        4.54327822      -1.62169933      -1.99360919
H        5.18836832       0.86430973      -1.17065954
H        4.04407835       0.92529970      -2.57331920
