16
Properties=species:S:1:pos:R:3 pbc="F F F"
C        0.98386961      -0.00678000      -0.01672999
C        2.51999903       0.00000000       0.00000000
C        3.01472878      -0.72361976       1.26198947
C        3.04282880      -0.73660970      -1.24249959
C        3.00201893       1.36116946       0.00000000
C        3.39929867       2.48306894       0.00000000
H        0.59155977       0.50109982      -0.90610963
H        0.57240981       0.50814980       0.85986966
H        0.59108979      -1.02999961      -0.01681999
H        2.66151905      -0.22503991       2.17274928
H        4.11033869      -0.74448967       1.30687952
H        2.66013908      -1.76021934       1.29058945
H        2.70426893      -0.25219992      -2.16637921
H        2.69463897      -1.77564931      -1.26409948
H        4.13924837      -0.75194973      -1.26620948
H        3.75502849       3.48760867       0.00000000
