15
Properties=species:S:1:pos:R:3 pbc="F F F"
C       -0.47631982      -1.57937944      -0.28123990
C        0.81302971      -1.22600961       0.47695982
C        1.19018948       0.22341992       0.41615987
O        1.13435960       0.84052968      -0.87113971
C        0.13272995       1.24860954       0.08492997
C       -1.24903953       0.75765967       0.01082000
C       -1.55718946      -0.53793979      -0.16512993
H       -0.85333967      -2.53791904       0.09466997
H       -0.25534990      -1.72395933      -1.34653950
H        1.63933945      -1.83997941       0.10255996
H        0.67956972      -1.49035943       1.53320944
H        2.00588918       0.49096984       1.07267964
H        0.24275991       2.24056911       0.50936979
H       -2.04594922       1.49289954       0.07124998
H       -2.59238911      -0.85182965      -0.26106989
