19
Properties=species:S:1:pos:R:3 pbc="F F F"
C        2.00934935      -0.54316980      -0.86313969
O        1.82070935       0.69587970      -0.19336993
C        3.05901885       1.39439940       0.04587998
C        3.44672871       2.41625905      -0.98727959
C        2.94423890       2.87224889       0.36345989
C        1.57828939       3.50637889       0.43272984
C        3.94135857       3.45501876       1.33098948
H        1.03021955      -1.00058961      -1.02733958
H        2.61458898      -1.21674955      -0.24920991
H        2.49067903      -0.38309985      -1.83249927
H        3.85656857       0.84546971       0.53929979
H        2.80021882       2.53683901      -1.84890926
H        4.50003815       2.52686906      -1.21574950
H        0.90689969       3.13677883      -0.34856987
H        1.65722930       4.59137821       0.31198987
H        1.11563957       3.30132890       1.40296948
H        4.92196798       2.97517896       1.24824953
H        3.59029865       3.32738853       2.35976911
H        4.07509851       4.52478838       1.14187956
