15
Properties=species:S:1:pos:R:3 pbc="F F F"
N        1.16865957      -0.06105998      -0.79308969
C        2.31961918       0.10445996      -0.23633991
N        2.96271896       1.28712952       0.00274000
C        4.27602816       1.36498952       0.64535981
C        4.57757807       2.88061905       0.69400978
C        3.36998868       3.50504875       0.05710998
C        2.50934911       2.54981899      -0.30429989
H        0.94899964      -1.06073952      -0.83539969
H        2.89564896      -0.77374971       0.10579996
H        5.03369808       0.83431971       0.05801998
H        4.24613857       0.93975967       1.65476942
H        5.48651791       3.11909866       0.13287994
H        4.70077801       3.22427869       1.72580934
H        3.22265887       4.56456804      -0.08554997
H        1.54668939       2.66521883      -0.78674972
