17
Properties=species:S:1:pos:R:3 pbc="F F F"
N        1.00419962       0.11632995       0.17280993
C        2.44781923      -0.04824998       0.02889999
C        2.81676888      -1.44668949      -0.45773983
C        2.82983875      -1.33010948      -1.97951937
N        3.32193875       0.03091999      -2.27600908
C        2.26553917       1.03086960      -2.37748909
C        2.98077893       0.83137971      -1.06755960
H        0.80714965       1.06011963       0.50335979
H        0.66223973      -0.51709980       0.89378971
H        2.93541908       0.16750993       0.98551959
H        2.14468932      -2.23170924      -0.09845997
H        3.82842851      -1.69303930      -0.10616996
H        3.50356865      -2.07566929      -2.41431904
H        1.83240926      -1.50669944      -2.39960909
H        2.50898910       1.91428924      -2.95555878
H        1.24096954       0.69589972      -2.48635888
H        3.73650861       1.53807938      -0.75251973
