15
Properties=species:S:1:pos:R:3 pbc="F F F"
C        1.45457947       0.65713972      -0.43663985
O        2.74354887       0.86552966       0.13794994
C        3.75214863       0.88129967      -0.77136976
O        3.63335872       0.73238975      -1.97888923
C        5.06357765       1.11259961      -0.11353996
C        6.31391764       0.44528982      -0.63870978
C        6.13258791       1.92603922      -0.80646968
H        0.72337973       0.60892975       0.37567988
H        1.42231941      -0.29012990      -0.98573965
H        1.18950951       1.49392939      -1.09173954
H        5.00365829       1.22692955       0.96510959
H        6.23391771      -0.17683993      -1.52405941
H        7.04538774       0.09921996       0.08235997
H        6.73964739       2.58764911      -0.19952992
H        5.93053770       2.29983926      -1.80517936
