13

C    0.88654000   2.13001700   0.00918900
C    2.22218700   2.30118900  -0.04020000
O    2.99661400   1.19858600   0.00206100
C    4.32035700   1.21053700  -0.03775900
C    4.92813500  -0.03018600   0.01769600
C    5.03471400   2.43326800  -0.13102000
C    5.67935700   3.45588900  -0.21041900
H    0.23083400   3.00144300  -0.02302900
H    0.44629600   1.13261800   0.08104800
H    2.73719400   3.26269800  -0.11209100
H    4.31413400  -0.93116900   0.08881100
H    6.01597700  -0.10813300  -0.00949500
H    6.25725600   4.36504500  -0.28094200