19
Properties=species:S:1:pos:R:3 pbc="F F F"
C        3.38043880      -1.02605963      -0.59802973
C        3.27482891      -0.19255993       0.67302972
C        3.36628890       1.31779957       0.40700984
C        3.10662889       2.10191917       1.70187938
C        3.07284904       3.60975862       1.48696947
C        4.74495840       1.65478945      -0.12235995
O        4.93669796       2.16309905      -1.22319949
H        3.24970865      -2.08713913      -0.36274987
H        4.35893822      -0.90859962      -1.07331955
H        2.60871887      -0.74104971      -1.31966949
H        4.06391859      -0.50615984       1.36821949
H        2.31567907      -0.42046982       1.15401959
H        2.62510920       1.60302937      -0.34912986
H        3.87400866       1.86886930       2.45045900
H        2.14275932       1.79429936       2.12525940
H        4.04875851       3.99021840       1.16889954
H        2.80712891       4.11650848       2.42064905
H        2.33138919       3.88348866       0.72950971
H        5.59287786       1.41751945       0.54414976
