15

C    1.06407200  -0.02943900   0.31551900
C    2.41411000  -0.01231500   0.01951100
C    3.28719000   1.20399900  -0.15498500
O    4.45166400   0.72455700  -0.76486200
C    4.64115200  -0.62197900  -0.43499000
C    3.25696300  -1.14910400  -0.15502000
C    2.87690900  -2.47463300  -0.06030200
H    0.50369100  -0.96242400   0.41780200
H    0.50932700   0.90350800   0.45277100
H    3.48020700   1.65306700   0.84316400
H    2.82799200   1.97987400  -0.78656400
H    5.14305200  -1.14207800  -1.26524200
H    5.26666300  -0.75635000   0.47378500
H    1.84353500  -2.76969400   0.13976700
H    3.60893600  -3.27736500  -0.18965300