13
Properties=species:S:1:pos:R:3 pbc="F F F"
C        0.99999964       0.00000000       0.00000000
C        2.44399905       0.00000000       0.00000000
C        3.63415861       0.00000000       0.00000000
C        5.04015779       0.00000000       0.00000000
C        5.69717741       1.13798952       0.00000000
C        7.10317755       1.13798952       0.00000000
C        8.29333687       1.13798952       0.00000000
H        0.60599977       1.02087963       0.01169000
H        0.60592973      -0.52052981       0.87824970
H        0.60592973      -0.50027978      -0.88993967
H        5.55226803      -0.95752966      -0.00000000
H        5.18389797       2.09498930       0.00000000
H        9.35757637       1.13823962      -0.00000000
