17
Properties=species:S:1:pos:R:3 pbc="F F F"
C        3.01729870      -0.89246970      -0.70753974
N        2.61467910       0.01290999       0.35933986
C        3.12806892       1.37268949       0.17554994
C        2.42365909       2.28841925       1.18033957
C        4.61812830       1.44206953       0.38851988
C        5.49333763       1.87296927      -0.53018981
H        2.53971887      -1.86476922      -0.55270982
H        4.09896851      -1.05568957      -0.72465974
H        2.69397879      -0.52311981      -1.68586934
H        2.91882896      -0.35257986       1.25953948
H        2.86428881       1.72797942      -0.82919967
H        2.62711883       1.99249923       2.21603918
H        1.33793950       2.26850915       1.03224957
H        2.75344896       3.32627869       1.05870950
H        4.99369812       1.12709951       1.35909951
H        5.17201805       2.20076919      -1.51379943
H        6.55661726       1.90246928      -0.31315988
