17
Properties=species:S:1:pos:R:3 pbc="F F F"
C        1.00139964       0.01047000      -0.04642998
C        2.51798892      -0.02111999       0.05010998
C        3.08050871       1.11629963       0.90500969
C        4.50436831       0.68049973       1.22483957
C        4.35815859      -0.81655967       1.29266942
O        5.21073818      -1.56565940       1.75188935
C        3.04369903      -1.28938949       0.72552973
H        0.63663977      -0.82508969      -0.65199977
H        0.66367972       0.94136965      -0.51267982
H        0.53539979      -0.06016998       0.94180965
H        2.94257903       0.05055998      -0.96058965
H        2.50528908       1.22408950       1.83350933
H        3.05712867       2.07818913       0.38289985
H        5.19323826       0.93464965       0.41481984
H        4.85153818       1.09059954       2.17558932
H        3.19704866      -2.09605932       0.00414000
H        2.40250897      -1.62109947       1.54773939
