19
Properties=species:S:1:pos:R:3 pbc="F F F"
C        0.93326962       0.59195977       1.17218959
O        2.34866905       0.68903971       1.09747958
C        2.76153898       1.48609936      -0.01130000
C        4.25704861       1.53765941       0.01151000
C        5.06415844       2.61805892       0.02765999
C        4.60482836       4.04926872       0.02550999
C        6.56148720       2.45118904       0.06017998
H        0.67591977      -0.02807999       2.03495932
H        0.53337979       0.11917996       0.26999992
H        0.48735982       1.58161938       1.30869961
H        2.29834914       2.47333908       0.05933998
H        2.43421888       1.00984967      -0.94218969
H        4.71624851       0.55041975       0.02168999
H        3.52048874       4.16143847      -0.02267999
H        5.02379847       4.57647800      -0.83849967
H        4.94703817       4.55413818       0.93539959
H        6.86393738       1.39875948       0.06370997
H        6.97521734       2.91869879       0.95962965
H        7.01418734       2.92359877      -0.81774968
