21
Properties=species:S:1:pos:R:3 pbc="F F F"
C        2.40114927      -1.65667939       0.11180996
C        3.72076845      -0.99452960      -0.29363987
C        3.97637868      -1.23665953      -1.78241932
N        3.63347864       0.43464983       0.03950999
C        4.90964842       1.14507949      -0.14108995
C        4.80049849       2.61789894       0.30408990
N        4.23547840       2.76165891       1.65275943
H        2.20933914      -1.53295946       1.18391955
H        2.42789912      -2.73243904      -0.09499997
H        1.55264938      -1.23067951      -0.43577984
H        4.52384853      -1.46218956       0.28919989
H        3.23924875      -0.71727973      -2.40542889
H        3.91693854      -2.30573916      -2.01597929
H        4.97395849      -0.89945966      -2.08107924
H        3.39597893       0.51956981       1.03064966
H        5.21727800       1.13565958      -1.19182956
H        5.69349766       0.65403974       0.44890985
H        4.16834831       3.16965890      -0.40005985
H        5.79502773       3.07454896       0.28076991
H        3.25031877       2.49629903       1.60432935
H        4.23374844       3.75185847       1.89855933
