10
Properties=species:S:1:pos:R:3 pbc="F F F"
C        0.98413962       0.00006000       0.01562999
C        2.32576895       0.00003000      -0.00665000
C        3.07062888      -1.28314948      -0.00274000
O        2.52078915      -2.37898922       0.02031999
C        3.04719877       1.28888953      -0.03497998
O        4.27018833       1.35480940      -0.05610998
H        0.39813983       0.91335970       0.01377999
H        0.42728984      -0.93462962       0.03672998
H        4.16876841      -1.18983960      -0.02219999
H        2.41954923       2.19579935      -0.03606999
