17

C    1.02967000  -0.06079900   0.29470400
C    2.40424900   0.09128400  -0.20170500
C    3.14301100   1.27209600  -0.21906400
C    4.52998800   1.39194400  -0.72698300
C    4.88581800   2.82607400  -0.53912400
C    3.85939600   3.50446800   0.01059300
C    2.69616500   2.60369000   0.25516200
H    1.01106200  -0.83538100   1.08300500
H    0.39533600  -0.47313300  -0.51112900
H    0.58115300   0.86298200   0.67785400
H    2.89562200  -0.80692200  -0.59536100
H    4.60104100   1.04853600  -1.78313600
H    5.21238200   0.68919800  -0.19887500
H    5.85310000   3.24459400  -0.81738100
H    3.85212300   4.56701300   0.25414400
H    2.38130400   2.56871500   1.32118800
H    1.76905200   2.92862100  -0.26605100