16
Properties=species:S:1:pos:R:3 pbc="F F F"
C        0.94930965      -0.00952000       0.05388998
C        2.46318913       0.01306000       0.00911000
C        3.16791892       1.05308962       0.91363966
C        4.23487854      -0.01938999       1.22867954
O        5.44701815       0.03314999       0.45040983
C        3.19693899      -1.08659959       0.81495970
H        0.56134981      -0.86924964      -0.50128978
H        0.53780979       0.89741969      -0.40001982
H        0.57588977      -0.07331997       1.08097959
H        2.81961894       0.06631997      -1.02952957
H        2.59208894       1.36398947       1.79321933
H        3.52893877       1.94677925       0.39664987
H        4.49631834      -0.06446998       2.29121900
H        5.16327810       0.06995997      -0.47874981
H        3.58131862      -1.91896927       0.21875991
H        2.63102913      -1.49218941       1.66179943
