19

C    0.01965200  -0.46641800   0.45475500
C    1.44856700  -0.35827900  -0.05265000
C    1.98194500  -1.63323900  -0.68361800
O    1.45402600   0.66040100  -1.08846600
C    2.17113900   1.78520800  -0.90721100
C    2.10170200   2.75838600  -2.00065300
C    2.78336600   3.93380400  -1.95053500
H   -0.32525800   0.48546200   0.88199100
H   -0.01669200  -1.23181700   1.24267900
H   -0.66039100  -0.76550800  -0.35484000
H    2.11928900  -0.01541600   0.75376500
H    1.34020900  -1.95483700  -1.51559200
H    1.99063200  -2.42593800   0.07759800
H    3.00802500  -1.49677500  -1.05201800
H    3.24925400   1.54237100  -0.67771000
H    1.89768300   2.28367200   0.06802200
H    1.47836500   2.50637500  -2.86531100
H    3.41210500   4.20447300  -1.09589700
H    2.72148900   4.65071900  -2.77248300