18
Properties=species:S:1:pos:R:3 pbc="F F F"
C        1.06575954       0.09859996      -0.11178996
C        2.55564904       0.07333997      -0.06564997
C        3.33762884      -0.62546974      -1.14780962
C        3.43202853       0.88154966      -1.01117957
C        2.81290889       1.72596931      -2.09502935
C        4.70259809       1.46187937      -0.44366983
H        0.68745977       0.95234966       0.45874983
H        0.66562974      -0.81451970       0.34065989
H        0.66922975       0.16267994      -1.12929964
H        2.90064907      -0.05475998       0.95586962
H        2.79711914      -1.03822958      -1.99293935
H        4.18754816      -1.22813952      -0.84716964
H        1.99664915       1.21425951      -2.61421895
H        3.56306863       1.98408926      -2.85064888
H        2.41946912       2.65627909      -1.67230940
H        5.12506819       0.83117968       0.34688988
H        4.51069832       2.45172906      -0.01699999
H        5.45928764       1.56460941      -1.22856951
