17
Properties=species:S:1:pos:R:3 pbc="F F F"
C        1.28793955      -0.28905991       0.47884983
C        2.52712917       0.21132992      -0.26801988
C        2.59382915      -0.33627990      -1.70570934
N        2.65683889      -1.79696941      -1.73251927
C        2.53379893       1.74510944      -0.28145990
O        3.74310875       2.24134898      -0.84352964
H        1.24900961       0.13110995       1.48965943
H        1.29470956      -1.37898946       0.57947975
H        0.36831987      -0.00096000      -0.04199998
H        3.42165875      -0.13068995       0.26936990
H        3.47697878       0.05619998      -2.22219920
H        1.71378934      -0.01198000      -2.27301908
H        3.50956869      -2.10912919      -1.26980948
H        2.73140883      -2.10866928      -2.70059896
H        2.44371891       2.14981914       0.73263973
H        1.70014942       2.13767934      -0.87364966
H        4.46734858       1.98355925      -0.24729991
