10
Properties=species:S:1:pos:R:3 pbc="F F F"
C        1.01690960      -0.02045999      -0.00067000
S        2.78377914      -0.13137995       0.01078000
O        3.29639888      -0.53594977       1.29778957
O        3.31200886      -0.55044979      -1.26534951
C        3.36741877       1.55611944       0.00468000
C        3.76207876       2.69162893       0.00032000
H        0.70054972       0.50458980      -0.90367967
H        0.68925977       0.51017982       0.89499968
H        0.61590976      -1.03603959      -0.00008000
H        4.12766838       3.69192863      -0.00353000
