15
Properties=species:S:1:pos:R:3 pbc="F F F"
C        0.98461962      -0.01325999       0.12517996
C        2.48685908       0.07898997      -0.07606997
O        2.78094888       0.20998992      -1.48920941
C        3.21215868       1.11050963       0.83875972
C        4.14174843       0.02417999       1.42012942
C        3.31363893      -1.02091956       0.66375977
O        3.34403872      -2.23544908       0.61005980
H        0.72609973      -0.11434996       1.18518960
H        0.57131982      -0.87894964      -0.40278986
H        0.48617983       0.88409966      -0.25624990
H        3.45457864      -0.46793985      -1.68299937
H        2.57087898       1.58731949       1.58897936
H        3.74154854       1.90202928       0.29724988
H        5.17743826       0.07517997       1.07346952
H        4.11289835      -0.08182997       2.50612903
