19
Properties=species:S:1:pos:R:3 pbc="F F F"
C        2.29563928      -1.01477969       1.32091951
C        2.46199918      -0.27726990      -0.00059000
C        3.04580879       1.12338960       0.17335993
N        4.41289806       1.01645970       0.68986976
C        4.97767830       2.15775919       0.85243964
N        6.24132729       2.28730917       1.33309948
C        6.72232723       3.49251866       1.95627928
H        1.82722938      -1.98904920       1.15146959
H        1.66180944      -0.44804984       2.00919938
H        3.26168895      -1.18723953       1.80447924
H        1.48074949      -0.19444993      -0.48401982
H        3.10172868      -0.86971968      -0.66598976
H        2.41711903       1.70481944       0.85876971
H        3.05000901       1.62637949      -0.80130970
H        4.48687840       3.12120867       0.62122977
H        6.61998749       1.41390944       1.68715942
H        6.58421755       4.35456848       1.29697955
H        7.78987694       3.39823866       2.17464900
H        6.19272757       3.67668843       2.89601898
