13
Properties=species:S:1:pos:R:3 pbc="F F F"
C        1.00152969      -0.03987999      -0.00709000
C        2.46964908       0.11456996       0.00095000
C        3.31090879       1.20917964       0.00445000
C        4.61611843       0.68019974       0.01203999
O        5.78250790       1.33975947       0.01772999
C        4.50831842      -0.68502975       0.01270000
O        3.19497871      -1.04187965       0.00587000
H        0.50414979       0.93490964       0.00132000
H        0.67045975      -0.59909976       0.87342966
H        0.67844975      -0.58001983      -0.90222967
H        3.00531888       2.24470901       0.00177000
H        5.62346792       2.29864931       0.01592999
H        5.22014809      -1.49693942       0.01733999
