15
Properties=species:S:1:pos:R:3 pbc="F F F"
C        1.23161960       0.01758999      -1.05502963
N        2.52029896       0.02451999      -0.36871988
N        3.17961884       1.21253955      -0.39451987
C        4.39715815       1.12438965       0.01617999
C        5.08281803       2.38589907       0.00000000
C        5.67789793       3.41660857       0.00000000
C        6.39989758       4.66714811       0.00000000
H        0.79449970      -0.98400968      -1.00916958
H        1.35338950       0.28439990      -2.10933924
H        0.53549981       0.72099972      -0.58822978
H        2.36715913      -0.28417990       0.59520978
H        4.91705799       0.21439993       0.35649985
H        5.71984816       5.51476765      -0.12905996
H        7.13222742       4.69936848      -0.81252968
H        6.93865728       4.81113815       0.94157964
