15
Properties=species:S:1:pos:R:3 pbc="F F F"
C        1.91402924      -0.63810974       0.01307000
C        3.03944898       0.03870998      -0.74712974
O        4.12301826       0.25208992       0.15992993
C        5.25226831       0.84435970      -0.33724988
C        5.50081778       1.26166952      -1.58489943
C        6.80485725       1.87563932      -1.89375925
O        7.07011747       2.26610899      -3.02396894
H        1.05519962      -0.81669974      -0.63957977
H        1.59397936      -0.02097999       0.85880971
H        2.24958920      -1.59514940       0.42559984
H        2.68620920       0.99827963      -1.14248955
H        3.35957885      -0.60806978      -1.57234943
H        5.96969795       0.93570966       0.47280982
H        4.80564833       1.18206954      -2.40892911
H        7.52034712       1.96225917      -1.05916953
