13

C    3.04081300  -1.38104800   0.06581700
C    2.40947500   0.00488900   0.04930700
O    1.17493700  -0.02772500   0.05522000
C    3.11164800   1.25398600   0.02891400
C    4.47678300   1.28888800   0.02216300
C    5.21268100   2.48338200   0.00246200
C    5.87067500   3.50283700  -0.01449200
H    3.66114900  -1.45280200   0.97106300
H    3.65288200  -1.47825900  -0.84267200
H    2.27105900  -2.16171000   0.08026200
H    2.51196700   2.16587900   0.01902400
H    5.06293800   0.36157000   0.03233100
H    6.45450500   4.41030000  -0.02955900