17
Properties=species:S:1:pos:R:3 pbc="F F F"
C        2.23285913      -0.92902964       1.14993954
C        2.07869935      -0.00780000      -0.02945999
C        1.31822944      -0.33548987      -1.08798957
C        2.79462910       1.27183950       0.03712999
C        2.07641912       2.41098905       0.00707000
C        4.23474836       1.39110947       0.25810990
C        5.14520788       0.51053983      -0.17533994
H        3.26865888      -1.26382947       1.26208961
H        1.61074936      -1.82574928       1.04816961
H        1.92832923      -0.42425984       2.07355928
H        0.78721970      -1.28056955      -1.13339961
H        1.21473956       0.32855988      -1.94150925
H        0.99646968       2.39944911      -0.10287996
H        2.54170918       3.38804889       0.08624997
H        4.57932854       2.27239919       0.79611969
H        4.86649799      -0.37538987      -0.73718977
H        6.20085764       0.66917974       0.01653999
