17
Properties=species:S:1:pos:R:3 pbc="F F F"
C        2.58548903      -0.47257984      -1.76250935
C        3.10903883      -0.41588983      -0.33560988
C        3.72840858       0.93693966       0.02372999
O        4.03679848       0.90273970       1.42008948
C        4.36895847       2.18639922       1.94161928
C        4.99536800       1.15562963      -0.78829968
O        5.16683769       2.11841917      -1.53206933
H        2.11435914      -1.44263947      -1.95241928
H        3.39273858      -0.34596989      -2.49092913
H        1.83721936       0.30715987      -1.93766928
H        3.84168839      -1.21882951      -0.18455993
H        2.28486919      -0.63003975       0.35642987
H        3.01285887       1.74232936      -0.18200994
H        4.48564863       2.09286928       3.02423882
H        3.57234859       2.90765882       1.73847938
H        5.31632805       2.53812909       1.52312946
H        5.78117752       0.39066985      -0.66148973
