18

N    0.97097600   0.05755900   0.10756400
C    2.34881100  -0.08434600   0.17791700
C    3.13873400   1.31197200  -0.04679600
C    4.58856700   1.02866200  -0.04502900
C    5.28454200   1.03778800  -1.22917800
C    5.27355300   0.65253100   1.18019900
C    4.73639000   0.70639400   2.41845100
H    0.46615200   0.62828600   0.77835500
H    0.44516700  -0.25843100  -0.70035600
H    2.69567700  -0.81439100  -0.56366900
H    2.68723000  -0.40935100   1.18448400
H    2.83302000   1.98183000   0.76882000
H    2.80345500   1.73656000  -1.00131000
H    4.79149900   1.25356400  -2.18054300
H    6.36349500   0.86166900  -1.25122800
H    6.30086000   0.29199600   1.07120000
H    3.73562100   1.09994600   2.61578300
H    5.31117800   0.38389000   3.28933500