15

C    1.21739100  -0.07385700  -1.14020500
N    2.38139200   0.18302900  -0.31697400
N    3.10160200   1.21796000  -0.49303100
C    4.15967200   1.38809300   0.30489600
C    4.96518200   2.49700400   0.14597500
C    5.70622400   3.47080500   0.03603600
C    6.56500100   4.62102500  -0.10834000
H    1.34573100  -1.03572300  -1.65805600
H    1.12222900   0.74301200  -1.86305200
H    0.32560000  -0.12864100  -0.49869500
H    2.61442300  -0.49779300   0.42079000
H    4.40049500   0.65351900   1.09163000
H    5.97397800   5.54173600   0.02367200
H    6.98573000   4.64198200  -1.12666800
H    7.38299800   4.60342900   0.62489300