13
Properties=species:S:1:pos:R:3 pbc="F F F"
C        0.35128987       1.44970942       0.35191989
C       -0.76269966       0.79070973      -0.41051984
C       -1.36067951      -0.43711984       0.09605996
C       -0.46194983      -1.42152953       0.20711991
C        0.87602967      -0.90542966      -0.23302990
N        0.66667974       0.49315980      -0.70691973
H        0.57115978       2.48653913       0.12670995
H        0.54440981       1.16248965       1.37862957
H       -1.29009950       1.34074950      -1.17952955
H       -2.40953898      -0.52445978       0.34329987
H       -0.65208977      -2.42364907       0.55599982
H        1.60588944      -0.94220966       0.58280975
H        1.25297952      -1.50925934      -1.06470966
