13

O    1.17854400  -0.13210500  -0.78369200
C    2.38622600  -0.06598200  -0.12592700
C    2.66248200   1.18421500   0.63839400
C    3.43227900   1.15346200   1.76140800
O    3.88270300   0.00270700   2.26283400
C    3.57066400  -1.18611600   1.74062000
C    2.80964200  -1.28773100   0.61713100
H    0.44996200  -0.18162300  -0.15306000
H    3.16283700  -0.01194300  -0.94679700
H    2.28129400   2.13486100   0.25775200
H    3.72348900   2.01634600   2.36205500
H    3.96315800  -2.01753200   2.32763600
H    2.54339600  -2.26997000   0.21934300