17
Properties=species:S:1:pos:R:3 pbc="F F F"
C        0.50950980       1.55235946       1.40750945
N        1.79731941       1.02742958       0.96253961
C        2.59309912       1.92931926       0.50965983
N        3.83792853       1.65159929       0.03200999
C        4.82867813       2.71161914      -0.05846998
C        5.87397766       2.68119907      -1.13726962
C        4.79050779       3.71933866      -1.17223954
H       -0.25155991       0.77398968       1.29377949
H        0.17659993       2.41985917       0.82635969
H        0.55791980       1.82640934       2.46585917
H        2.33520913       3.00409889       0.47055984
H        4.12665844       0.69318974       0.20304993
H        5.15380812       3.06108880       0.91874969
H        5.83360767       1.88614929      -1.87289929
H        6.87686777       3.00152874      -0.88164967
H        5.05820847       4.74314833      -0.93811965
H        4.02110863       3.62102866      -1.92866921
