13
Properties=species:S:1:pos:R:3 pbc="F F F"
N        1.24694955       0.38617983       1.25140953
C        2.18956923       0.39131987       0.59089977
C        3.34100866       0.39758986      -0.21593992
C        4.54347801       0.74747968       0.25852990
N        5.70321798       0.77067971      -0.48964983
C        6.94442749       0.40075985       0.20655991
C        6.67772722       1.82136929      -0.16212994
H        3.23202896       0.10649996      -1.25416946
H        4.65579844       1.04063964       1.30268955
H        7.61516714      -0.17828993      -0.41225985
H        6.84103775       0.08967996       1.23666954
H        6.38439798       2.52540898       0.60441977
H        7.16372728       2.22972918      -1.03800964
