14
Properties=species:S:1:pos:R:3 pbc="F F F"
N        1.04564953       0.00857000       0.08151997
C        2.49313903       0.02972999      -0.07009997
C        3.09316897       1.06150949       0.91028965
C        4.15705824      -0.00781000       1.24683952
C        3.11485887      -1.06751955       0.82033974
H        0.59905976      -0.78475970      -0.37679988
H        0.58440977       0.84031969      -0.28497991
H        2.87155914       0.07774998      -1.09567964
H        2.46683908       1.32984948       1.77019930
H        3.47888851       1.97803926       0.45554984
H        5.04096794       0.02833999       0.59936976
H        4.47882843      -0.04850998       2.29030919
H        3.51972866      -1.93448925       0.29117990
H        2.49555898      -1.42000949       1.65458930
