16
Properties=species:S:1:pos:R:3 pbc="F F F"
C        1.23382962      -0.24693990      -0.37801987
C        2.73451900      -0.23852991      -0.13675995
C        3.20596886       1.10174954       0.42508984
C        4.68307829       1.09838951       0.66046977
C        5.64358807       1.63714945      -0.36641988
O        5.25874805       2.40470910       0.78381968
H        0.91795969      -1.21896958      -0.76944971
H        0.94944960       0.52057981      -1.10490966
H        0.68579972      -0.06053998       0.55109978
H        3.25522876      -0.45329982      -1.07742965
H        2.99355888      -1.04574966       0.55917978
H        2.69878912       1.30279958       1.37587953
H        2.92717886       1.90931928      -0.26370990
H        5.01586819       0.33782986       1.35413945
H        5.26266813       1.95523930      -1.32853949
H        6.65098715       1.24100959      -0.38563985
