15
Properties=species:S:1:pos:R:3 pbc="F F F"
C        0.89546967       2.20263910      -1.94510925
O        1.97605920       3.03960896      -1.55378938
C        2.68191886       2.53541899      -0.40164986
C        4.05379820       1.98186922      -0.66236973
C        3.90078855       3.33411884      -0.01361999
C        4.21223831       3.53277874       1.42028952
O        4.06339836       2.64371896       2.24893928
H        0.40944985       2.64958906      -2.81619906
H        0.16369994       2.12658906      -1.13523960
H        1.26354957       1.20863950      -2.21540928
H        2.10488915       2.09127927       0.40590984
H        4.40423822       1.94733930      -1.68675947
H        4.38436842       1.15031958      -0.05016998
H        4.12927866       4.19509840      -0.63340974
H        4.58136845       4.53284836       1.70224941
