15
Properties=species:S:1:pos:R:3 pbc="F F F"
C        1.11654961      -0.10591996       0.12232995
C        2.43379903       0.01193000      -0.06584997
C        3.23693871       1.27439952      -0.03338999
C        4.49049807       0.89125967      -0.81076968
C        4.49311829      -0.60259980      -0.71057969
C        5.53859806      -1.41575944      -0.87937969
O        3.23828864      -1.07026958      -0.36818984
H        0.63493979      -1.07592964       0.05729998
H        0.49818981       0.75677973       0.34206986
H        3.49324870       1.52621949       1.00262964
H        2.72193885       2.12527919      -0.48916984
H        4.39546824       1.19373953      -1.85994923
H        5.38724804       1.35307944      -0.38686985
H        5.42679834      -2.48885894      -0.76497972
H        6.51930761      -1.02965963      -1.13261950
