14

O    1.99967100  -0.58975600  -0.93167600
C    2.40956600   0.02417500   0.16859700
C    3.36320900   1.44810100  -0.30458100
C    2.49088600   2.61372900  -0.72730800
C    2.88458400   3.16063800   0.65202400
O    3.78968900   2.03300800   0.82661300
H    1.12183300  -0.30541600  -1.22545500
H    3.18217200  -0.54970200   0.69616700
H    1.63431600   0.46113400   0.81656600
H    4.12885500   0.93523800  -0.90844100
H    1.42556600   2.43111000  -0.91947500
H    2.91918900   3.16839000  -1.57507800
H    3.46008200   4.09681500   0.68243600
H    2.11989900   3.16592800   1.44292100