17
Properties=species:S:1:pos:R:3 pbc="F F F"
C        1.01282966       0.12827995       0.13014995
C        2.50034904      -0.10011996      -0.04516998
O        3.26725888       0.94844961       0.59972978
C        4.06530857      -0.03134999       1.30273950
C        3.14817905      -1.17200959       0.85128969
C        3.79704857      -2.32130909       0.11263996
O        4.49424839      -3.14625859       1.03840959
H        0.44540983      -0.72889972      -0.24651991
H        0.69090974       1.01484966      -0.42548984
H        0.74825972       0.27467990       1.18270957
H        2.77696896      -0.16690993      -1.10491955
H        5.09034824      -0.05134998       0.92041963
H        4.07776880       0.15495995       2.38026905
H        2.48635888      -1.52148938       1.65477931
H        4.49808836      -1.98530936      -0.65855974
H        3.03520894      -2.94015884      -0.37127987
H        5.32233810      -2.69609904       1.27796948
