19
Properties=species:S:1:pos:R:3 pbc="F F F"
C        1.06717956       0.08654997      -0.11926995
C        2.55631900       0.04922998      -0.08875997
C        3.39097857      -0.65318978      -1.13190961
O        2.74101901      -1.20564950      -2.28475904
C        3.43753886       0.86128968      -1.02756965
C        2.83363891       1.69915938      -2.12742901
C        4.68549824       1.47406936      -0.43827984
H        0.70218968       0.84818971       0.57719982
H        0.66584980      -0.87988967       0.20200993
H        0.64846975       0.31182986      -1.10237968
H        2.89272881      -0.06491998       0.93919969
H        4.25854826      -1.20137954      -0.77303970
H        1.78445935      -1.04554963      -2.29453921
H        1.96985936       1.23239946      -2.60855889
H        3.57771873       1.88481927      -2.90975904
H        2.51010919       2.66649890      -1.72872925
H        5.10577822       0.86021966       0.36544985
H        4.46359825       2.46278930      -0.02389999
H        5.45369816       1.58708942      -1.21003950
