18
Properties=species:S:1:pos:R:3 pbc="F F F"
C        1.00100958      -0.05369998       0.00248000
C        2.51999903       0.00000000       0.00000000
C        3.00201893       1.36116946       0.00000000
C        3.39929867       2.48306894       0.00000000
C        3.88131857       3.84423852       0.00000000
C        4.92948818       4.05569839      -1.09140956
N        2.76046896       4.76003790      -0.19372992
H        0.65725970      -1.09299958       0.00189000
H        0.58549982       0.44237983      -0.88160968
H        0.58849978       0.44033983       0.88910961
H        2.89586878      -0.53280979      -0.88067967
H        2.89884901      -0.53402978       0.87864971
H        4.33947849       4.06926870       0.96966964
H        4.52085829       3.86207867      -2.08963919
H        5.78071785       3.38123870      -0.94822967
H        5.31149769       5.08179808      -1.07475960
H        2.31829906       4.55482817      -1.08828962
H        3.11067867       5.71286821      -0.26048991
