14
Properties=species:S:1:pos:R:3 pbc="F F F"
C        3.43196869      -0.99090964       1.39342952
O        3.30355883      -0.52452981       0.05587998
C        3.48491883       0.87943965      -0.04498998
C        4.93223810       1.33030951       0.11402996
C        5.94002771       0.71606976      -0.81974971
O        5.25703812       2.18124914       0.94316965
H        3.22256875      -2.06467915       1.40310943
H        2.71186900      -0.49059981       2.04988933
H        4.45055819      -0.83475971       1.76202929
H        2.85385895       1.40124953       0.68447977
H        3.15367866       1.19227958      -1.04117966
H        5.94379759      -0.36979985      -0.70149970
H        6.93841743       1.09575963      -0.58323979
H        5.69396782       0.98325962      -1.85073924
