17
Properties=species:S:1:pos:R:3 pbc="F F F"
C        1.03853953      -0.00264000       0.08291997
C        2.37650895      -0.00488000       0.03513999
C        3.24866891       1.21981955       0.03783999
C        4.42767859       0.82290971      -0.84980965
C        4.55011797      -0.66504973      -0.65666980
C        5.67010784      -1.37489939      -0.84207970
C        3.24165893      -1.21975958      -0.16064994
H        0.47133982      -0.92661965       0.02566999
H        0.47959980       0.92317969       0.17650993
H        3.59353852       1.42214942       1.05904961
H        2.74226904       2.11152911      -0.34417987
H        4.19725847       1.03823960      -1.90009928
H        5.33650780       1.36476946      -0.57032979
H        5.69458771      -2.44516921      -0.66199976
H        6.58613777      -0.90298969      -1.18355954
H        2.80389881      -1.90317929      -0.89522970
H        3.38556862      -1.73595929       0.79463971
