16
Properties=species:S:1:pos:R:3 pbc="F F F"
C        2.00638914      -0.71672970      -1.25029945
O        1.71097934       0.35969985      -0.36922988
C        2.87012887       1.09423959       0.07946997
C        3.71514869       0.39140984       1.09536958
C        3.48024869       2.07194924      -0.89031971
C        2.63097906       2.57421899       0.24171992
H        2.60647893      -0.37471986      -2.09843922
H        1.06262970      -1.11688960      -1.63055944
H        2.52996922      -1.51372945      -0.71527970
H        4.49289846       1.04672956       1.50186944
H        4.21266842      -0.47594982       0.65127975
H        3.09660864       0.04486998       1.92907929
H        3.06697869       2.13222909      -1.89023936
H        4.54787827       2.24906921      -0.84109968
H        3.12175894       3.09484863       1.05511963
H        1.64267945       2.95391893       0.00790000
