14
Properties=species:S:1:pos:R:3 pbc="F F F"
C        1.29250944      -0.37705988      -0.25087991
N        2.73911881      -0.19632994      -0.22080992
N        3.16055870       1.08677959      -0.10233996
C        4.44772816       1.21365952      -0.12640995
C        5.08713818       2.53957915       0.00032000
C        6.41877747       2.65199900      -0.01178000
H        1.05422962      -1.43601954      -0.38767985
H        0.84899968       0.17828993      -1.08323956
H        0.83600968      -0.03837999       0.68460971
H        3.12770891      -0.78816968       0.51734978
H        5.12822819       0.34976986      -0.24346991
H        4.42938805       3.39514875       0.10053997
H        7.07485723       1.79300928      -0.11384996
H        6.88606787       3.62758875       0.08064996
