15
Properties=species:S:1:pos:R:3 pbc="F F F"
C        1.32015955      -0.24238992       0.89975965
C        2.20803905      -0.08540997      -0.09104997
C        3.19168901       1.04498959      -0.17581993
C        4.60392809       0.54024982      -0.14349996
C        5.48746824       0.72442973      -1.13490951
C        6.81814766       0.23465993      -1.04253960
C        7.94277716      -0.17391993      -0.96959966
H        0.63116974      -1.08158958       0.89950967
H        1.26000953       0.45497984       1.72959936
H        2.22464895      -0.81087971      -0.90233970
H        3.05386877       1.74601924       0.65613973
H        2.99614882       1.60745943      -1.09663963
H        4.90572786       0.00761000       0.75681973
H        5.20862818       1.25752950      -2.03888917
H        8.94264603      -0.53709978      -0.90340966
