14

C    0.86698600   0.00146900   0.10267100
C    2.40830300   0.00033400   0.05519600
C    3.01390000   1.15383900  -0.67399600
C    3.86287000   0.70034700  -1.68856300
C    3.86189200  -0.70660000  -1.68658100
C    3.01231300  -1.15605600  -0.67073700
H    0.50952300   0.89120000   0.63781400
H    0.50829100  -0.88628600   0.64026600
H    0.43868500   0.00036800  -0.90897000
H    2.78319800   0.00154800   1.09960900
H    2.81011700   2.20237300  -0.44229200
H    4.43651600   1.33511800  -2.36568100
H    4.43465600  -1.34407100  -2.36190700
H    2.80708700  -2.20365200  -0.43608600