12
Properties=species:S:1:pos:R:3 pbc="F F F"
O        0.91435969       0.01106000      -0.01130000
C        2.35659909       0.02001999      -0.00830000
C        3.04783893       1.02504969       0.93869966
N        4.04841852      -0.01597999       1.27299953
C        3.07123876      -1.04527962       0.85187966
H        0.67119974      -0.79867971      -0.49134982
H        2.74279904       0.06976997      -1.03520966
H        2.43877912       1.33839941       1.79458928
H        3.46227860       1.91592932       0.45820981
H        4.87884808       0.02194999       0.68160975
H        3.50400877      -1.88349938       0.29848990
H        2.46981907      -1.44264948       1.67743945
