15

O    1.23665700  -0.05101700   1.12112100
C    2.15766600   0.01114600   0.38559300
C    2.79342000   1.26185700  -0.19756400
C    4.31257700   1.25917500  -0.04377000
C    4.96243600  -0.06878700   0.01855500
C    4.26714400  -1.24901400   0.08337800
C    2.82026600  -1.32999900  -0.12568300
H    2.32816100   2.14339900   0.26060000
H    2.50476200   1.23891200  -1.26230400
H    4.62878500   1.81735100   0.85794900
H    4.77309600   1.83814100  -0.86881000
H    6.05231200  -0.08867500   0.11645500
H    4.79212800  -2.15733400   0.39798100
H    2.52547600  -1.29958500  -1.19357500
H    2.35195400  -2.20576100   0.34146300