17
Properties=species:S:1:pos:R:3 pbc="F F F"
C        2.73274899       0.89643967      -3.26271868
C        2.89673901       1.38749945      -1.83759928
O        4.13995838       0.90018970      -1.33679950
C        4.41400862       1.33854949       0.00000000
C        5.47117805       0.39776987       0.56851983
C        4.89601851       2.69972897       0.00000000
C        5.29330778       3.82161856       0.00000000
H        1.78383934       1.23725951      -3.68629861
H        2.76510906      -0.19734992      -3.30105877
H        3.55132866       1.26175952      -3.89199853
H        2.07686925       1.00755966      -1.21866953
H        2.87948895       2.48220921      -1.82393932
H        3.50703859       1.24168956       0.60898978
H        6.38819742       0.42060983      -0.03218999
H        5.11017799      -0.63644975       0.55111980
H        5.72949791       0.65944976       1.59996951
H        5.65348816       4.82444811      -0.00663000
