15
Properties=species:S:1:pos:R:3 pbc="F F F"
O        0.91047966       0.00370000       0.09400997
C        2.34602928       0.00929000       0.01777999
C        3.06346869       1.05358958       0.90143967
C        4.12776852      -0.02012999       1.23387957
C        3.07324886      -1.08142960       0.83557969
C        5.32149839       0.00818000       0.40740985
C        6.30580759       0.03152999      -0.27992991
H        0.63393980      -0.75879973      -0.44291985
H        2.67403889       0.04769998      -1.02894962
H        2.47863913       1.37608957       1.77158928
H        3.41781855       1.94592929       0.37623987
H        4.38027859      -0.05162998       2.30078936
H        3.43515873      -1.93641925       0.25624990
H        2.49148917      -1.46213937       1.68399942
H        7.17882729       0.05361998      -0.89075971
