15

C    2.69502700   1.31541600  -2.85571200
C    3.29561000   1.57207600  -1.53006900
O    2.87574600   1.97942800  -0.51419600
O    4.74967600   1.20300000  -1.58705200
C    5.43126100   1.28340400  -0.49385000
C    6.88145900   0.99147800  -0.51837000
C    6.90059200   2.46425600  -0.59598200
H    3.22390800   1.90146900  -3.62130900
H    1.63460300   1.58754500  -2.82780700
H    2.81284300   0.25181800  -3.11048100
H    4.88836200   1.51669500   0.43357900
H    7.20506400   0.46365100  -1.42219300
H    7.25094500   0.57077200   0.42489000
H    6.93937000   3.08241400   0.30556700
H    6.91349900   2.96301000  -1.56916000