19
Properties=species:S:1:pos:R:3 pbc="F F F"
C        2.68301892      -0.99914962      -0.53380984
C        2.23964906       0.34934986       0.01410999
N        3.35888863       1.29473948      -0.05721998
C        3.19957876       2.33437920      -1.07273960
C        2.97867894       2.63858891       0.39018986
C        3.97229838       3.44258881       1.16830957
N        3.54848862       4.83857822       1.16883957
H        1.86331928      -1.72069931      -0.46313983
H        3.52964878      -1.39778948       0.03578999
H        2.97934890      -0.92414969      -1.58439934
H        1.94313931       0.21995991       1.06195962
H        1.34988952       0.68524975      -0.53335977
H        2.33902907       2.30148911      -1.72832930
H        4.11506844       2.67084885      -1.54228938
H        1.96374929       2.78006911       0.74734974
H        4.98016834       3.36356854       0.74801975
H        4.00868845       3.07617879       2.19965911
H        3.61468863       5.20580769       0.22016992
H        4.21067858       5.37922812       1.72560930
