15
Properties=species:S:1:pos:R:3 pbc="F F F"
C        2.88746905      -1.03725958      -0.42655984
O        2.29784918       0.20618992      -0.07815997
C        3.24914885       1.27252948      -0.05375998
C        3.50716853       1.82910931      -1.46619940
C        3.05285883       3.23178887      -1.33638954
C        2.65295887       3.43149877      -0.08851997
O        2.74357891       2.35652924       0.76493973
H        2.10056925      -1.79612935      -0.44953984
H        3.62964869      -1.33146954       0.32190987
H        3.35148883      -0.98871964      -1.41600955
H        4.18212843       0.93113965       0.41283983
H        2.94735885       1.29584944      -2.24046922
H        4.57326841       1.79100931      -1.71245933
H        3.04733872       3.96638846      -2.12651920
H        2.26254916       4.33137798       0.35768989
