15
Properties=species:S:1:pos:R:3 pbc="F F F"
C        0.85401970      -0.29198989      -0.04063999
C        2.35557914      -0.30944988       0.00834000
C        3.04938889      -1.45956945      -0.01783999
C        3.03699875       1.03228962       0.10634996
O        2.71606898       1.80360937      -1.05802953
C        3.72009850       1.98667920      -1.94620931
O        4.87126827       1.59196937      -1.85667932
H        0.45094985       0.21618992       0.84130973
H        0.43219984      -1.30251944      -0.06297997
H        0.50438982       0.23266990      -0.93554962
H        2.55353904      -2.42345905      -0.08380996
H        4.13552856      -1.46829951       0.01566000
H        4.11833858       0.93354964       0.26058990
H        2.64979887       1.57457936       0.97577965
H        3.33704853       2.57351899      -2.79534888
