21
Properties=species:S:1:pos:R:3 pbc="F F F"
C        0.96623963      -0.02456999      -0.00774000
C        2.48602915       0.00531000       0.02106999
C        3.02010894       1.43770945      -0.00766000
C        4.54911852       1.46081948       0.01321999
C        5.08452797       2.89039874      -0.00845000
C        6.60759735       2.91840887       0.00631000
O        7.06560755       4.26440859       0.00067000
H        0.60756975      -1.05809963       0.01678999
H        0.58215976       0.44689983      -0.91770971
H        0.54711980       0.50134981       0.85569966
H        2.87308884      -0.55362982      -0.83889967
H        2.83882880      -0.50479984       0.92500961
H        2.63122892       1.99173927       0.85573965
H        2.65659904       1.94734919      -0.90866965
H        4.93580770       0.91078967      -0.85295963
H        4.91178799       0.94660962       0.91118962
H        4.70369864       3.45309877       0.85296971
H        4.71904850       3.41923881      -0.89754969
H        7.02444696       2.40673900      -0.86733967
H        6.99757719       2.43327904       0.90631962
H        6.73453760       4.68255806      -0.81097966
