15
Properties=species:S:1:pos:R:3 pbc="F F F"
O        0.98058963       0.01181000      -0.13390994
C        2.40174890      -0.07363997       0.03001999
C        3.12423873      -0.81105965      -1.05286956
C        3.22815895       0.69338971      -0.97557968
C        4.51378822       1.40760946      -0.58303976
C        5.86687803       1.07432961      -1.16245961
O        5.10759783       2.18645930      -1.63812935
H        0.63166976       0.83486968       0.24961990
H        2.78690886      -0.17602994       1.03940964
H        2.53664899      -1.23609960      -1.85805929
H        3.98174834      -1.40799952      -0.76830971
H        2.65358901       1.23262954      -1.73013937
H        4.50885820       1.87394929       0.39879984
H        5.95634747       0.21332991      -1.81407928
H        6.74661732       1.28464949      -0.56709981
