19

C    1.01000800   0.03742100   0.28230400
C    2.51245700   0.00264600   0.01702600
C    2.96393600  -1.34902200  -0.63313900
C    2.71161300  -1.21223300  -2.08641000
C    3.60726100  -0.37415900  -2.91938300
C    2.71258600   0.64776700  -2.32472600
C    2.96524200   1.14626900  -0.95285200
H    0.72387000   0.99104400   0.74746000
H    0.72294900  -0.76783200   0.97281500
H    0.41768700  -0.08026800  -0.63867300
H    3.05848600   0.12370700   0.96411500
H    2.41099700  -2.19259000  -0.20194700
H    4.04082700  -1.49855600  -0.45112400
H    1.82609000  -1.66102200  -2.54950200
H    4.64488800  -0.32940000  -2.56580600
H    3.49123400  -0.51253000  -3.99980900
H    1.82746300   0.96621700  -2.88612000
H    4.04231000   1.33575600  -0.81427400
H    2.41322600   2.07186600  -0.74833800