17

C    0.58038400   0.60366000  -0.10624000
C    2.03451000   0.31191200  -0.11929700
C    2.94938400   0.77620900   0.96885100
C    4.18808100  -0.12580900   1.01307100
C    3.71853100  -1.52933400   1.02727600
N    4.24660400  -2.48209800   0.33650600
H    0.02630100  -0.04825700  -0.79611700
H    0.39164800   1.64402300  -0.43818400
H    0.14678600   0.51168000   0.90159800
H    2.49741300   0.05502700  -1.08140100
H    2.43234700   0.74878800   1.94294300
H    3.26541800   1.82770200   0.82887200
H    4.85751600   0.04862800   0.15583800
H    4.78139800   0.03863000   1.93185200
H    2.90015300  -1.81035000   1.70183600
H    5.01510200  -2.30719500  -0.31159800
H    3.90887500  -3.44200200   0.40031900