17
Properties=species:S:1:pos:R:3 pbc="F F F"
C        0.95076960       0.17602994      -0.90589964
C        2.41430902       0.09194997      -0.62361974
C        3.21750879       1.15816963      -0.48336983
C        4.65498829       1.10971963      -0.19587994
C        5.59211779       0.55153978      -1.23562944
C        5.57817745       2.02550912      -0.96138960
O        6.70636749       2.54665899      -0.24267991
H        0.72341973      -0.33042988      -1.84930933
H        0.60144979       1.21050954      -0.98113966
H        0.38809985      -0.31675988      -0.10673996
H        2.83389878      -0.90740967      -0.53133982
H        2.78346896       2.15379930      -0.56903982
H        4.89140797       0.91885966       0.84598970
H        5.18555784       0.21642992      -2.18349910
H        6.43946743      -0.03162999      -0.89648962
H        5.15078831       2.66496921      -1.72826934
H        7.03475714       1.92758930       0.43225986
