14

C    0.95298300  -0.09456200  -0.08279400
C    2.39079700  -0.00339700   0.01180400
C    3.60751000   0.10790900   0.13591800
C    5.07210200   0.14908400   0.14087000
N    5.18812600  -0.71043400  -1.02406900
C    5.67558000   1.46356800  -0.04301000
C    6.18149000   2.54844900  -0.18619700
H    0.50722700   0.58023100   0.66799600
H    0.60713800  -1.11696900   0.12651600
H    0.60495900   0.22739600  -1.07523400
H    5.49049200  -0.36164000   1.02357600
H    5.12787500  -0.30450000  -1.95924500
H    5.15928300  -1.72575500  -0.92938300
H    6.63572800   3.51795000  -0.30948700