19
Properties=species:S:1:pos:R:3 pbc="F F F"
C        2.19692922      -0.63423973       1.45415950
C        2.67706895      -0.19301993       0.07816997
O        1.59010935      -0.26734990      -0.84186971
C        3.17719889       1.22383952       0.09375996
C        4.45281792       1.65229940       0.00572000
C        5.66163778       0.76272970      -0.09434997
C        4.76961803       3.12557888       0.00674000
H        3.01209903      -0.62086976       2.18385911
H        1.78870928      -1.64937949       1.40572953
H        1.38983941       0.00974000       1.82051933
H        3.43315887      -0.89339966      -0.28474990
H        0.88574964       0.31542987      -0.51414979
H        2.39557910       1.97710931       0.17931993
H        5.43314791      -0.29760990       0.03067999
H        6.38530779       1.02460968       0.68492973
H        6.14346790       0.89121968      -1.06880963
H        3.86889863       3.74535871       0.06699997
H        5.29953766       3.39912868      -0.91158962
H        5.40381765       3.37667871       0.86315972
