11
Properties=species:S:1:pos:R:3 pbc="F F F"
C        0.94788963       0.00932000      -0.00754000
C        2.43394899       0.04450998      -0.00125000
C        3.22106886       1.18151951       0.00189000
S        4.87088823       0.72727972       0.00872000
N        4.59540844      -0.90777963       0.00764000
C        3.28115869      -1.10957956       0.00229000
H        0.52452981       1.01871955       0.00271000
H        0.57532978      -0.52380979       0.87288964
H        0.58271980      -0.50300980      -0.90330964
H        2.92265892       2.22016907       0.00047000
H        2.94516873      -2.14004922       0.00078000
