17
Properties=species:S:1:pos:R:3 pbc="F F F"
C        1.94856930      -0.70943975       1.31174946
C        2.90748906      -0.07836998       0.35142985
N        3.63443875       0.92830968       0.71428972
N        4.45446825       1.37407947      -0.26463988
C        5.16587782       2.53452897       0.28284991
C        5.77055788       3.53257871      -0.66630977
C        4.56630802       3.90701842       0.14775994
H        2.24933910      -1.74652934       1.47984946
H        0.94898963      -0.70200974       0.87024963
H        1.93494928      -0.17219993       2.26288915
H        2.96047878      -0.52063978      -0.66042978
H        5.12575769       0.65726978      -0.55112976
H        5.72822809       2.33583903       1.19318950
H        5.63092804       3.38696885      -1.73085940
H        6.72269726       3.97324848      -0.39611986
H        4.69705820       4.59278822       0.97579962
H        3.61165881       3.99505854      -0.35723987
