13
Properties=species:S:1:pos:R:3 pbc="F F F"
C        1.91511929      -0.95158964      -0.10998996
N        3.05244875      -0.47079983       0.26472992
N        3.16217875       0.86656964      -0.10120996
C        4.28796864       1.36040938       0.30624989
C        4.65743828       2.78805900       0.02115999
C        4.89357805       3.52699852       1.26835954
C        5.08737803       4.13627815       2.28521919
H        1.66747940      -2.00255942       0.10329996
H        1.15606952      -0.35633987      -0.64576977
H        5.02564812       0.75035971       0.85902965
H        3.86453867       3.26471901      -0.56426978
H        5.56927776       2.77842879      -0.58501983
H        5.25531769       4.67758846       3.18795872
