13
Properties=species:S:1:pos:R:3 pbc="F F F"
N        0.98559958       0.03014999      -0.13253994
C        2.43745923       0.03050999      -0.00301000
C        3.01146889      -1.22618949       0.68738973
O        3.67805862      -0.83431971       1.90776932
C        3.54637861       0.53521979       1.93481922
C        2.88025880       1.08928955       0.92840964
H        0.69050974      -0.76617974      -0.69227970
H        0.69187975       0.86378968      -0.63654977
H        2.89032888       0.15660994      -0.99230963
H        3.74630857      -1.72093928       0.04213998
H        2.23820901      -1.96363926       0.93578964
H        3.99492836       1.01762962       2.78747892
H        2.69301891       2.14304924       0.81300968
