13
Properties=species:S:1:pos:R:3 pbc="F F F"
C        0.72669971      -1.24073958       0.49441984
O       -0.63613981      -1.55681944       0.13156995
C       -1.53833938      -0.54268980      -0.01246000
C       -1.23890948       0.75920969      -0.04206999
C        0.13131995       1.24329960       0.04749998
O        1.15131950       0.79516965      -0.86275971
C        1.13264954       0.19771993       0.43989983
H        1.38524938      -1.84122932      -0.14374995
H        0.85922968      -1.60281944       1.52129936
H       -2.54140902      -0.93011963      -0.13594995
H       -2.03204918       1.48778939      -0.17850994
H        0.24683990       2.23699903       0.46316984
H        1.94302928       0.44457984       1.10955966
