12
Properties=species:S:1:pos:R:3 pbc="F F F"
C        0.99325961      -0.02993999       0.01076000
C        2.51999903       0.00000000       0.00000000
C        3.05984879      -0.76211971      -1.20894957
C        3.00201893       1.36116946       0.00000000
N        3.38622880       2.44615912       0.00000000
H        0.59643978       0.48972982       0.89075971
H        0.62337977      -1.06085956       0.03603999
H        0.57452977       0.45800981      -0.87749970
H        2.87535882      -0.50596982       0.90601969
H        2.73201919      -0.30666989      -2.15049934
H        2.71684885      -1.80209923      -1.19857955
H        4.15563869      -0.77052969      -1.20969951
