17
Properties=species:S:1:pos:R:3 pbc="F F F"
C        1.01345956      -0.01358999      -0.04178998
C        2.52821898      -0.01610999       0.09166997
O        2.93602896      -1.19818962       0.81077969
C        3.30826879      -0.80729967       2.14849925
C        4.56381798      -1.55757940       2.55295897
C        3.48992848       0.66775972       2.07747912
C        3.03697872       1.11945951       0.90759963
H        0.68588972      -0.87704968      -0.63084978
H        0.65355974       0.89822966      -0.52818978
H        0.52642983      -0.10404997       0.93634963
H        3.00315881      -0.03657999      -0.89439964
H        2.48225904      -1.05974972       2.82283902
H        5.39459801      -1.34475946       1.87080932
H        4.39084864      -2.63841915       2.50909901
H        4.87204838      -1.29537952       3.57013869
H        3.89529848       1.27602947       2.87183881
H        3.02381897       2.15148902       0.59317976
