15

N    2.05830100  -0.57661000  -1.01716200
C    2.51077400   0.06132600   0.09468900
C    3.45686600   1.48659700  -0.29978500
C    2.59587200   2.66206400  -0.73189800
C    2.91032700   3.16700700   0.68546100
O    3.82610400   2.05449800   0.87041600
H    1.17864000  -0.32287400  -1.45868700
H    2.62555100  -1.26672900  -1.50318100
H    3.24889700  -0.51163800   0.66971200
H    1.71016800   0.49013300   0.71059100
H    4.27464000   1.05169700  -0.89419200
H    1.54450300   2.47233900  -0.98328000
H    3.06018400   3.25211600  -1.53418700
H    3.45209000   4.11845600   0.77298800
H    2.09499800   3.13155000   1.42312700