16
Properties=species:S:1:pos:R:3 pbc="F F F"
O        1.01838958       0.03395999      -0.01755999
C        2.43251896       0.01086000       0.01000000
C        2.97596884       1.12959957       0.88333964
C        4.38448811       0.65541971       1.19301951
C        4.23461819      -0.84762967       1.40969944
C        2.96609902      -1.26151955       0.66256970
H        0.72395968      -0.74578971      -0.51844978
H        2.81059885       0.10761996      -1.01434958
H        2.38318896       1.23579955       1.79969931
H        2.96169877       2.09626913       0.37076986
H        5.04157829       0.84380966       0.33645988
H        4.81309843       1.15984964       2.06439924
H        5.11549807      -1.39109945       1.05299962
H        4.12258863      -1.06871963       2.47747922
H        3.17893887      -2.02618933      -0.09241997
H        2.23636913      -1.69556928       1.35542953
