17
Properties=species:S:1:pos:R:3 pbc="F F F"
C        3.28929877      -0.96205962       1.19278955
C        2.73982906      -0.22249992      -0.01881999
C        2.96897888       1.28353953       0.05492998
C        4.43207836       1.61830938      -0.03999998
N        5.03121805       2.22890925       0.92989969
N        6.37321758       2.43067908       0.62892973
C        6.95865726       3.07073879       1.58551943
H        3.03799868      -2.02567935       1.13026953
H        2.86502886      -0.56697977       2.12125897
H        4.37927818      -0.87936968       1.24905956
H        1.66223943      -0.41199985      -0.08752997
H        3.19804859      -0.63150978      -0.92691964
H        2.54814911       1.69846940       0.97704959
H        2.47166896       1.76677930      -0.79318970
H        4.95981836       1.32204950      -0.96440965
H        8.02935696       3.31215858       1.50798941
H        6.43484735       3.39923859       2.49910903
