15
Properties=species:S:1:pos:R:3 pbc="F F F"
C        0.87538970      -0.02859999      -0.24406990
C        2.18904924       0.00030000       0.01580999
C        2.94311881       1.26611960       0.34125987
C        4.35659838       1.18931949      -0.23361990
O        5.07596827       0.03066999       0.21853991
C        4.33495808      -1.12479949       0.15643995
C        3.00354886      -1.19621944       0.02621999
H        0.27977988       0.87957966      -0.23477992
H        0.35434985      -0.95488960      -0.46720982
H        2.42940903       2.15063930      -0.05250998
H        2.99904895       1.36504960       1.43290949
H        4.92928839       2.06923914       0.07723997
H        4.33986855       1.18324959      -1.33083951
H        4.97398806      -1.99440920       0.24291991
H        2.51864910      -2.16567922      -0.04162998
