16

C    0.97844700  -0.04148800  -0.08306400
C    2.43873800   0.08374000  -0.03609600
O    3.18889100  -0.28229300  -1.10662300
C    3.49186400   1.05888600  -1.10383600
C    2.86718800   1.88058800  -2.16169800
C    4.72428200   1.50041800  -0.40319100
H    0.50273600   0.68778900   0.58881400
H    0.72568000  -1.04406500   0.31546000
H    0.57969600   0.02523600  -1.10235200
H    2.95844800   0.16454800   0.92973000
H    1.85744600   1.54096800  -2.42100300
H    3.49154000   1.76990200  -3.06899200
H    2.86788500   2.94516100  -1.89208200
H    5.07399800   0.77849900   0.34453500
H    4.59708100   2.49687800   0.04230800
H    5.50578400   1.59248700  -1.18025200