17
Properties=species:S:1:pos:R:3 pbc="F F F"
C        1.08464956       0.06244998      -0.11803996
C        2.57803893      -0.12624995      -0.01482999
C        3.02944875      -1.56119943      -0.06947997
O        2.52834916      -2.25243902       1.06495953
C        3.39117885       0.94468963       0.09383996
C        4.88115788       0.97806966       0.19951992
O        5.38611794       1.69749939      -0.91375965
H        0.79914969       1.11995959      -0.12175995
H        0.57759976      -0.41256985       0.72774971
H        0.70930976      -0.38320985      -1.04535961
H        4.11453867      -1.67884934      -0.08095998
H        2.64255905      -2.04835916      -0.97068965
H        2.74049902      -1.70886934       1.84295928
H        2.93919897       1.93704927       0.11732996
H        5.35101795      -0.00661000       0.21561992
H        5.17727804       1.50544941       1.11134958
H        5.02368832       1.27598953      -1.71151948
