14

C    1.00844100  -0.07144600   0.05191100
C    2.51224900   0.05255300   0.02602100
C    3.12254900   1.17133000   0.88404300
O    4.29719000   0.56520800   1.44874000
C    4.19183600  -0.76525400   1.33421600
O    3.13904600  -1.13430900   0.59913900
H    0.68136500  -0.94519800  -0.52588600
H    0.57251700   0.82558200  -0.41078100
H    0.63787800  -0.15532500   1.08320100
H    2.88474900   0.07982000  -1.01381400
H    2.47934100   1.48432800   1.72445100
H    3.43350100   2.05736000   0.31671100
H    5.14956200  -1.22114100   0.93285600
H    4.16381100  -1.26366800   2.35403800