16

C    1.26868100  -0.33996900   0.14683900
C    2.78361000  -0.39799100  -0.04005800
C    3.38539100   0.97784900   0.19323200
C    4.92187000   1.07606800   0.03875400
C    5.54293000   2.43795900  -0.22594500
O    5.59962200   0.09793900   0.13571000
H    0.83963900  -1.33554100  -0.03135500
H    0.79631300   0.35604000  -0.56217000
H    0.99689100  -0.03486900   1.16775900
H    3.02435600  -0.73743800  -1.05931900
H    3.23200600  -1.12173800   0.65777800
H    3.25814300   1.33200000   1.23624900
H    2.98248400   1.76024600  -0.47080600
H    5.35990200   2.64024300  -1.29445800
H    6.61773300   2.42194100  -0.01449000
H    5.00625900   3.17803600   0.38313900