12
Properties=species:S:1:pos:R:3 pbc="F F F"
C        0.96028966      -0.04655998      -0.00403000
C        2.48036909      -0.01139000      -0.00279000
C        3.00793886       1.42181945       0.00812000
C        4.47573853       1.44429946       0.00916000
N        5.63739777       1.46412945       0.00999000
H        0.60514981      -1.08180964      -0.01189000
H        0.55694979       0.45759985      -0.88803971
H        0.55580980       0.44452983       0.88678962
H        2.85367894      -0.54282975      -0.88695967
H        2.85254884      -0.55580980       0.87390965
H        2.63402891       1.94929922       0.89333963
H        2.63507891       1.96232927      -0.86965972
