8
Properties=species:S:1:pos:R:3 pbc="F F F"
C        0.97570968      -0.01272000      -0.00000000
C        2.31275916       0.00346000      -0.00000000
C        3.03705883       1.22424960       0.00000000
C        3.64598870       2.25892925       0.00000000
H        0.43328983      -0.95236963      -0.00000000
H        0.39439985       0.90381968      -0.00000000
H        2.87307882      -0.92667967      -0.00000000
H        4.17911863       3.18002868       0.00000000
