20

C    1.99251100  -0.08807300   0.61917400
C    2.86952700  -0.12509100  -0.61314900
C    2.07539500  -1.04004300  -1.83774400
N    1.81496100  -2.31611200  -1.42148000
C    3.15540500   1.18843100  -1.23346000
C    4.45897700   1.88540600  -0.81458400
C    4.29953800   1.37551400  -2.20073600
H    2.50061400   0.51867000   1.38409900
H    1.82660200  -1.08670400   1.04605500
H    1.02083400   0.38750200   0.41709500
H    3.79201400  -0.70394700  -0.44933700
H    2.78986500  -1.00615900  -2.66900200
H    1.16114500  -0.46061300  -2.02004400
H    2.50944400  -3.05584300  -1.50867900
H    0.97458300  -2.54456500  -0.89381900
H    2.28687100   1.84311300  -1.35839400
H    5.12300600   1.34857500  -0.13299300
H    4.37756900   2.95736800  -0.62248600
H    4.15119000   2.09282200  -3.01044700
H    4.87643600   0.48698800  -2.47677000