17
Properties=species:S:1:pos:R:3 pbc="F F F"
C        1.18108964      -0.57563978       0.21376991
O        2.48779893      -0.16350994       0.59171975
C        2.74256897       1.20614946       0.27543989
C        2.33492923       2.04646921       1.45426941
C        1.47121942       3.07121897       1.40671957
C        4.22102833       1.31374943       0.02607999
C        4.78120804       1.73124933      -1.11831951
H        1.06824958      -1.63267934       0.46992981
H        1.03926969      -0.46510983      -0.86601967
H        0.42086983      -0.00436000       0.75503975
H        2.19281912       1.49815941      -0.62936974
H        2.77466893       1.77443933       2.41131926
H        0.99875963       3.37795877       0.47954983
H        1.22085953       3.62410879       2.30662918
H        4.86930799       1.00409961       0.84291971
H        4.18220854       2.03356910      -1.97107923
H        5.86111784       1.76592934      -1.22395957
