13
Properties=species:S:1:pos:R:3 pbc="F F F"
O        0.87200963      -0.25967991      -0.21982992
C        2.25046921       0.05643998       0.09256996
C        3.40249872      -0.75391972      -0.65174973
O        4.25773811       0.44838986      -0.23858991
C        3.01297879       1.13679957      -0.79883969
C        2.89906883       0.69976974      -2.21494913
C        3.16904879      -0.60982978      -2.11379910
H        0.36454985       0.49869981       0.11512996
H        2.38716912       0.16532993       1.17551947
H        3.75947857      -1.69785929      -0.24152991
H        2.95254874       2.19419932      -0.54348981
H        2.66145897       1.28570950      -3.08631897
H        3.20571876      -1.36621952      -2.87703896
