9

C    0.90811700  -0.00328700   0.00000000
C    2.30847200  -0.00088300   0.00000000
C    3.01600400  -1.20057600  -0.00000000
C    3.64987200  -2.25339900  -0.00000000
C    3.02971400   1.23426000   0.00000000
N    3.60380500   2.24060900   0.00000000
H    0.35164600   0.93969200   0.00000000
H    0.35930300  -0.95000400  -0.00000000
H    4.21042900  -3.18116100  -0.00000000