15
Properties=species:S:1:pos:R:3 pbc="F F F"
C        0.86149967      -0.16216995       0.03203999
C        2.28833914      -0.15413994      -0.38236988
O        2.52318907       0.28933990      -1.72561932
C        2.99709892       1.14319956      -0.67285973
C        4.48258829       1.24682963      -0.58475977
C        4.98033810       1.42878938       0.82599968
O        4.25811815       1.51577938       1.81430936
H        0.78139973       0.01850999       1.10888958
H        0.41073984      -1.13613951      -0.18496993
H        0.27712992       0.60596979      -0.48687983
H        2.85169911      -0.99520963      -0.00276000
H        2.48354888       2.07758927      -0.49225980
H        4.82565832       2.10681915      -1.17009950
H        4.96869850       0.35116985      -0.98999965
H        6.07741785       1.48661947       0.92960966
