12
Properties=species:S:1:pos:R:3 pbc="F F F"
C        1.61242938      -0.44974986      -0.48558980
O        3.00618887      -0.22515991      -0.30836987
N        3.22345877       1.15783954      -0.22145993
C        4.48813820       1.36719954      -0.06106998
C        5.02591801       2.75686884       0.06440998
H        1.44170940      -1.52740943      -0.55326980
H        1.26735950       0.02101999      -1.41134942
H        1.05345964      -0.05690998       0.36936986
H        5.21799803       0.54015976      -0.01034000
H        4.22315836       3.49540877       0.00149000
H        5.74869776       2.92990875      -0.73696971
H        5.53895807       2.85200882       1.02477968
