12
Properties=species:S:1:pos:R:3 pbc="F F F"
C        0.94418967       0.05432998      -0.00596000
C        2.44842911      -0.01321999      -0.00203000
C        3.13500881      -1.17079949       0.00210000
C        2.51748896      -2.45035911       0.00140000
N        2.01400924      -3.49486876       0.00066000
C        3.18635893       1.21038949      -0.00174000
C        3.80383849       2.24003935      -0.00102000
H        0.59123975       1.09150958       0.01000000
H        0.52954984      -0.44403985       0.87667966
H        0.53678977      -0.41551986      -0.90738964
H        4.22041845      -1.16745949       0.00530000
H        4.34742832       3.15627885      -0.00026000
