22

C    1.18121000  -0.14066800  -0.45917200
C    2.70773300  -0.06516600  -0.42369300
C    3.17803000   1.37261700  -0.53250400
C    4.77327500   1.59264700  -0.26232300
N    5.46635800   0.81864000  -1.18851000
C    5.12538800   3.07704800  -0.33538300
C    6.56924600   3.36329900   0.07092400
H    0.85144800  -1.18622000  -0.39058400
H    0.78056100   0.27846500  -1.39369800
H    0.73281200   0.40771600   0.38239100
H    3.12118800  -0.66777100  -1.24949300
H    3.07483000  -0.50936400   0.51691400
H    2.72959600   2.00960900   0.24556700
H    2.96159900   1.81687100  -1.51563100
H    4.92171500   1.15566400   0.74087000
H    5.76035000   1.21019400  -2.08704800
H    5.60252900  -0.18561700  -1.05898700
H    4.42973900   3.61102100   0.32738000
H    4.91975500   3.44603600  -1.35478100
H    6.77720200   3.01078200   1.09175400
H    6.75710900   4.44490100   0.04765700
H    7.29129400   2.88568600  -0.60915500