17
Properties=species:S:1:pos:R:3 pbc="F F F"
C        1.91301930      -0.23678991       1.42628944
C        2.29686904       0.22370991       0.02727999
N        2.89589882       1.57597947       0.06394997
C        2.08056927       2.70615888       0.04000998
C        0.74816972       2.81094909      -0.02748999
C        4.28070831       1.62923932       0.17899993
N        5.09462833       2.62600899       0.20086992
H        1.51605952      -1.25572956       1.39312947
H        1.14647961       0.41065985       1.86213934
H        2.77817917      -0.22813992       2.09588909
H        1.42206943       0.19925992      -0.63388973
H        3.00318885      -0.49537984      -0.40802982
H        2.63694906       3.63773870       0.09321997
H        0.09029996       1.95225918      -0.07523997
H        0.27808991       3.78955865      -0.03021999
H        4.73333836       0.62536979       0.26404992
H        4.58959818       3.50571871       0.10680996
