15
Properties=species:S:1:pos:R:3 pbc="F F F"
C        0.94099969       0.19545993       0.04741998
C        2.37220907      -0.24959990       0.12607996
C        2.71387887      -1.53291953       0.32275990
C        3.39495873       0.83974969      -0.02489999
O        3.03547907       2.01466918      -0.14209995
C        4.88225794       0.49205980      -0.02593999
O        5.68979788       1.64474940      -0.23591991
H        0.72247970       0.92995965       0.82942969
H        0.24521990      -0.64042974       0.17663993
H        0.73471975       0.64927977      -0.92764962
H        1.94967926      -2.29902935       0.43079984
H        3.73940849      -1.87998927       0.38826984
H        5.09456825      -0.21427992      -0.83250970
H        5.15685797       0.06290998       0.94114959
H        5.08102798       2.41159892      -0.19789992
