14
Properties=species:S:1:pos:R:3 pbc="F F F"
N        0.95477968      -0.00112000       0.00878000
C        2.41790915       0.00598000       0.03478999
C        2.97738886       1.43281937       0.00000000
C        4.42138815       1.43281937       0.00000000
C        5.61154795       1.43281937       0.00000000
C        7.14381742       1.43151939      -0.00009000
C        8.34386730       1.43059945       0.00014000
H        0.62537974      -0.96617961       0.02440999
H        0.62582982       0.39445984      -0.87160963
H        2.79298878      -0.57080978      -0.81912965
H        2.75624895      -0.50595981       0.94331968
H        2.60425901       1.99443924       0.86505967
H        2.60855889       1.95043933      -0.89400965
H        9.40942669       1.43056953       0.00103000
