14
Properties=species:S:1:pos:R:3 pbc="F F F"
C        0.91609967       0.07847998       0.07155997
N        2.37440920       0.01751999      -0.04281998
C        2.74951911      -0.73875970      -1.24127960
C        2.94000888       1.38517952      -0.06703997
C        4.41720819       1.43215942       0.02632999
N        5.57639790       1.49199939       0.08020997
H        0.62277979       0.59426975       0.99271965
H        0.49164981      -0.93001968       0.13095994
H        0.45565984       0.59768981      -0.77686971
H        2.32292914      -1.74777925      -1.20560944
H        3.83500838      -0.86868966      -1.30501962
H        2.40363932      -0.25303990      -2.16099930
H        2.54873896       1.94594932       0.79166973
H        2.61396885       1.92032933      -0.96816963
