13
Properties=species:S:1:pos:R:3 pbc="F F F"
C        0.94164968       0.04936998      -0.03199999
C        2.26930904       0.01336999       0.10288996
O        2.95524907       1.15006959       0.48327982
C        4.29677868       1.16949952      -0.01855999
O        5.09424829       0.00542000       0.24464990
C        4.37769842      -1.14639962       0.05997998
C        3.04789901      -1.18887961      -0.05064998
H        0.39975983       0.97580963       0.12903996
H        0.36381987      -0.82866967      -0.29797989
H        4.80501795       2.02056909       0.44623983
H        4.27997828       1.35790944      -1.10089958
H        5.01946831      -2.01624918       0.03467999
H        2.53965902      -2.13464928      -0.20520993
