13
Properties=species:S:1:pos:R:3 pbc="F F F"
O        3.04505897      -0.94727963      -0.57150978
C        2.36694908       0.10123996       0.10243996
C        3.24893880       1.30343950       0.11074996
C        3.28970885       2.23153925      -1.07558966
C        2.66079903       2.68683887       0.21344991
H        2.44377899      -1.71026933      -0.57816976
H        2.15591931      -0.21897991       1.12785959
H        1.41856956       0.29212990      -0.41037983
H        4.18196869       1.10916960       0.62754977
H        2.64071918       2.02003932      -1.91775918
H        4.25040865       2.64943886      -1.35263956
H        3.19518876       3.42092848       0.80527973
H        1.58282948       2.79744887       0.23777992
