11

C    2.28146400  -0.66231100   1.03040000
C    2.52790900   0.11429600  -0.08507500
C    2.90756000   1.56571200  -0.00044900
C    4.26897100   1.07905700   0.08269100
C    5.36955900   0.53458100   0.13471500
H    1.93909700  -1.69528000   0.92189400
H    2.40076100  -0.26201800   2.04239700
H    2.47989500  -0.33038900  -1.08477200
H    2.57133800   2.09028300   0.90358900
H    2.69872400   2.13622600  -0.91373300
H    6.35016800   0.08131100   0.17899300