17
Properties=species:S:1:pos:R:3 pbc="F F F"
C        1.75130928      -0.85766965      -1.10351956
C        3.19238877      -1.05159962      -0.74445975
C        3.84985852      -2.19995928      -0.96950966
O        3.74689865       0.02031999      -0.06316998
C        5.00120831       0.52606982      -0.39178985
C        5.44305801       0.50389981      -1.82603931
C        5.71780777       1.12478960       0.56938976
H        1.63655937       0.01501999      -1.75356925
H        1.15580952      -0.69397974      -0.19877993
H        1.33686948      -1.72510934      -1.62781942
H        3.37318873      -3.03648877      -1.46883941
H        4.87540817      -2.33231902      -0.64311975
H        4.62461853       0.80137968      -2.48943925
H        5.79140759      -0.49168983      -2.11691928
H        6.26995754       1.20122957      -2.00126934
H        5.34407806       1.16933954       1.58671939
H        6.67869711       1.58098948       0.36503989
