12

C    0.86483700   0.00069900   0.00294500
C    2.21524400   0.00062900  -0.00063900
C    3.09964500   1.15820000  -0.00281300
C    4.43339800   0.70137600  -0.00642100
C    4.43333100  -0.70033600  -0.00663000
C    3.09954500  -1.15703300  -0.00315800
H    0.29794500   0.93567800   0.00458800
H    0.29782800  -0.93420900   0.00431000
H    2.77801000   2.20142200  -0.00180400
H    5.31833500   1.33836100  -0.00867500
H    5.31821800  -1.33739100  -0.00907400
H    2.77778200  -2.20021600  -0.00245900