15
Properties=species:S:1:pos:R:3 pbc="F F F"
C        1.37351942      -0.05445998       0.39517984
N        1.91023922      -0.99825960      -0.59787977
C        2.28841925      -2.25827932       0.08379997
C        3.58725858      -2.12979913       0.76865971
C        4.65451813      -2.03156924       1.31099951
N        1.11298954      -1.14523959      -1.69508934
C        1.79613936      -1.15162957      -2.79220891
H        1.17161953       0.91110963      -0.08231997
H        2.08653927       0.13740996       1.20381963
H        0.43469983      -0.41796982       0.82849967
H        2.39059901      -3.05637884      -0.66350973
H        1.50327945      -2.58649921       0.77647966
H        5.60666800      -1.94143927       1.78235924
H        1.27662957      -1.26329947      -3.75630856
H        2.89519882      -1.04569960      -2.82866907
