15
Properties=species:S:1:pos:R:3 pbc="F F F"
C        1.01784956       0.15201995       0.05914998
C        2.48799920       0.02140999      -0.11391996
C        3.23692894      -1.06508958      -0.22689991
C        2.83268881      -2.49444890      -0.18635993
O        4.58231783      -0.77637970      -0.38633984
C        4.55678797       0.66503972      -0.36072987
O        3.22699881       1.19242966      -0.18732992
H        0.51714981      -0.82109970       0.06115998
H        0.59274977       0.74547970      -0.75666970
H        0.78965968       0.65266979       1.00482965
H        3.70743871      -3.14276862      -0.07236997
H        2.32274914      -2.77427912      -1.11250961
H        2.16545916      -2.69002891       0.65836972
H        4.96625805       1.04195964      -1.30511951
H        5.18663836       1.01517963       0.46492982
