15
Properties=species:S:1:pos:R:3 pbc="F F F"
C        1.08616960      -0.26422989       0.10387997
C        2.57875919      -0.01076000      -0.00324000
C        2.93208909       1.46191943       0.10865996
O        2.07772923       2.34190917       0.20558992
C        4.39807844       1.79946935       0.03149999
C        4.73131800       3.09173870       0.71467972
O        5.69740772       3.21454883       1.46367943
H        0.87545967      -1.33632946       0.03610999
H        0.54197979       0.24285991      -0.69999975
H        0.69234973       0.10206996       1.05802953
H        2.94741893      -0.37925985      -0.96647966
H        3.09535885      -0.54772979       0.79904974
H        4.68071795       1.87724936      -1.02166963
H        4.97872782       1.00149965       0.50311983
H        4.11435843       3.96538854       0.44139981
