17

C    1.40307900   2.65531700  -1.28543100
C    2.79422900   2.54183200  -0.83092100
C    3.33217500   1.42019500  -0.21537500
C    4.67289800   1.30682000   0.22419800
C    5.06361400   0.11185500   0.82616400
C    5.68563000   2.41539600   0.06893600
O    6.89411800   1.98874400   0.59737600
H    0.93145900   3.52999400  -0.80149000
H    0.80406800   1.75659800  -1.09567100
H    1.38988800   2.89472000  -2.36436700
H    3.43786000   3.41404400  -0.99789900
H    2.67477900   0.55908100  -0.05693800
H    4.35408600  -0.70990300   0.95356900
H    6.09122500  -0.00910100   1.17641300
H    5.28872500   3.31343200   0.58337500
H    5.75571400   2.66372800  -1.00905500
H    7.56046600   2.67713600   0.51215800