15

C    0.95464500  -0.00025900   0.02244500
C    2.16169700  -0.00071900   0.02462900
C    3.62601900  -0.00127400   0.00719600
C    4.17095000  -1.21868000  -0.78563300
C    4.52573000  -0.70386400  -2.10710800
C    4.52627200   0.70817300  -2.10458100
C    4.17190700   1.21853600  -0.78127800
H   -0.12193900   0.00010300   0.03444200
H    3.99782300  -0.00327300   1.04229400
H    3.50194800  -2.09699400  -0.82504700
H    5.10897800  -1.62874500  -0.33992300
H    4.79027200  -1.32008600  -2.97182400
H    4.79125700   1.32727300  -2.96710300
H    5.11024400   1.62628400  -0.33409900
H    3.50358600   2.09750500  -0.81755500