17

C    1.99412300  -0.21894000  -1.39243200
C    2.44947700   0.20925800  -0.03615000
C    3.60670700   1.50695500  -0.15935600
O    3.02671600   2.52735400  -0.78150600
C    2.96448400   3.66069900   0.10801100
C    3.39333000   3.06322900   1.45241200
O    4.01188100   1.82284600   1.06393500
H    1.24734000  -1.01780500  -1.23067800
H    2.80261200  -0.65128900  -1.99774000
H    1.49957200   0.58845500  -1.94739200
H    3.02756700  -0.53242700   0.53024200
H    1.68001500   0.68448600   0.58828400
H    4.36371500   0.96520800  -0.76469800
H    3.65710700   4.41844400  -0.28584100
H    1.94246300   4.05808500   0.09576500
H    4.13967500   3.65545000   1.99449500
H    2.55394900   2.83125200   2.12518900