8
Properties=species:S:1:pos:R:3 pbc="F F F"
O        0.97132963      -0.00030000       0.00000000
C        2.19460917      -0.00025000       0.00000000
C        2.92350888      -1.24842954       0.00000000
C        3.52737856      -2.28751922       0.00000000
C        2.92343879       1.24797952       0.00000000
C        3.52711868       2.28714919       0.00000000
H        4.05621862      -3.21247864       0.00000000
H        4.05556870       3.21236873       0.00000000
