14
Properties=species:S:1:pos:R:3 pbc="F F F"
C        2.71250916      -1.39957941       0.90539962
N        3.66449857      -0.47150981       0.30229989
N        3.47932863       0.83195972       0.61585981
C        4.27596807       1.63034940      -0.02047999
C        4.20476818       3.11134887       0.19813992
C        5.49167824       3.59047866       0.69547969
N        6.52267742       3.97229838       1.07183957
H        2.91293883      -2.41597891       0.55385983
H        1.68696940      -1.14127958       0.62324977
H        2.79367900      -1.38851953       1.99686921
H        4.61044836      -0.78657967       0.53645980
H        5.01810837       1.26512957      -0.75571972
H        3.40106869       3.34806871       0.90224963
H        3.97054839       3.58076859      -0.76253968
