15
Properties=species:S:1:pos:R:3 pbc="F F F"
C        1.05762959      -0.00417000       0.02126999
C        2.39617896      -0.01117000       0.04026998
C        3.25680876       1.21710944       0.06050998
C        4.42721796       0.84448969      -0.83156967
C        4.51051807      -0.64802974      -0.65008974
O        5.49510765      -1.30902946      -0.96299964
C        3.24526858      -1.24677944      -0.08463997
H        0.48668981      -0.92627966      -0.04064999
H        0.49515983       0.92412961       0.06897997
H        3.60386872       1.40119958       1.08438957
H        2.74579883       2.11451912      -0.29967991
H        4.21522808       1.05985951      -1.88440919
H        5.35182810       1.33574951      -0.51922977
H        2.82714891      -1.97353935      -0.78417969
H        3.45636868      -1.68636930       0.89338970
