17
Properties=species:S:1:pos:R:3 pbc="F F F"
C        1.87092936      -0.39291987       1.08809960
O        3.13519883       0.25650990       1.13524961
C        3.15598893       1.51759946       0.44151986
C        2.41626906       2.58603907       1.24210954
C        4.63344860       1.92429924       0.26330990
N        5.35630798       0.94782966      -0.56205982
H        1.99309933      -1.40192950       1.48944950
H        1.50735950      -0.47032982       0.06008998
H        1.14369953       0.13374995       1.71038938
H        2.69338894       1.40277946      -0.54733980
H        2.79025888       2.63398886       2.27032900
H        1.34623957       2.36198926       1.30323946
H        2.52378893       3.57237864       0.78015971
H        5.12355804       1.97050917       1.24274945
H        4.70949793       2.90968871      -0.20686992
H        5.15368795       0.02149999      -0.17541994
H        6.35847759       1.08965957      -0.44418982
