17
Properties=species:S:1:pos:R:3 pbc="F F F"
C        1.07353961      -0.12938996      -0.37198988
C        2.40163898       0.02892999      -0.35400987
C        3.08701897       1.28510952      -0.20979993
C        4.41874838       1.41990948      -0.15513995
C        4.83223820       2.84192896       0.02826999
C        3.54756856       3.60948873      -0.26961988
C        2.40351915       2.61395907      -0.07545997
H        0.64118975      -1.11909962      -0.48400980
H        0.38327986       0.70202971      -0.27540988
H        3.02670884      -0.85794967      -0.45231983
H        5.13009787       0.60664976      -0.20491992
H        5.17399788       3.00886893       1.05486953
H        5.63093805       3.12658882      -0.66282976
H        3.55912876       3.96045852      -1.31001949
H        3.43744874       4.49333858       0.36704984
H        1.62971938       2.77315903      -0.83317965
H        1.95587933       2.71693897       0.91925961
