9

C    1.00081900   0.02766000  -0.02815500
C    2.45879700   0.04837200   0.18903500
N    3.20580100   0.99453000  -0.22195000
O    4.46966300   1.04322500  -0.40896000
H    0.74342700  -0.92593000  -0.51869500
H    0.65101800   0.87381800  -0.62990500
H    0.50058300   0.01598300   0.95426500
H    2.95838300  -0.74198900   0.77848700
H    4.81390000   1.89389200  -0.05849100