17
Properties=species:S:1:pos:R:3 pbc="F F F"
C        0.99999964       0.00000000       0.00000000
C        2.44399905       0.00000000       0.00000000
C        3.63415861       0.00000000       0.00000000
C        5.07815790       0.00000000       0.00000000
C        5.62263775      -0.81734973      -1.17228949
C        5.57692814       1.42194951      -0.07950997
C        6.34775782       2.00942922       0.84596968
H        0.60602981       1.02088964       0.01153000
H        0.60593975      -0.52042985       0.87829965
H        0.60601974      -0.50039983      -0.88989967
H        5.43610811      -0.46449983       0.92772961
H        5.29213810      -0.41463983      -2.13663912
H        5.27908802      -1.85593927      -1.11499965
H        6.71763754      -0.82631969      -1.16826952
H        5.28007793       1.99878919      -0.95512968
H        6.66902733       1.48453951       1.73975933
H        6.66875744       3.04000878       0.72680974
