19
Properties=species:S:1:pos:R:3 pbc="F F F"
C        1.00144958       0.00430000      -0.00457000
C        2.53450894      -0.01636999      -0.03057999
C        3.05200887      -1.23823965      -0.81148970
C        3.32984877      -0.67905974      -2.16782904
C        3.35444856       0.65826976      -2.15670919
C        3.09457874       1.21235943      -0.78579974
C        4.38063812       1.74357939      -0.15896994
H        0.63904971       0.88389969       0.53752983
H        0.61370975      -0.88483971       0.50332981
H        0.57575977       0.02960999      -1.01332963
H        2.88511872      -0.05024998       1.00827968
H        2.31951904      -2.04993916      -0.85074967
H        3.97959852      -1.62377942      -0.37481984
H        3.52059865      -1.29045951      -3.03943872
H        3.56410861       1.27589953      -3.01939893
H        2.35543919       2.01978922      -0.83464968
H        5.15245819       0.96891963      -0.09051996
H        4.18778849       2.11517906       0.85243964
H        4.78815842       2.57121897      -0.74943972
