14
Properties=species:S:1:pos:R:3 pbc="F F F"
O        2.49770904       1.67186940       1.48587942
C        2.19268918       1.52557945       0.30643988
C        3.17390895       1.37690949      -0.83270967
C        4.61020803       1.33746946      -0.40536985
C        5.34412766       0.02606999      -0.28818989
C        5.67888784       0.97564960      -1.40476954
H        1.13068962       1.51527941       0.00553000
H        3.01906896       2.22891927      -1.50312936
H        2.90129876       0.46759981      -1.37993944
H        4.84943771       2.12047911       0.30800989
H        4.82558823      -0.89190972      -0.54018980
H        6.05779791      -0.08083998       0.52170980
H        6.62229776       1.50830948      -1.35093939
H        5.38359785       0.70077974      -2.41086912
