17
Properties=species:S:1:pos:R:3 pbc="F F F"
C        4.64189863       1.04167962      -1.92684937
C        5.86081791       1.59678948      -1.21296954
O        5.81862783       3.02000880      -1.31020951
C        6.79075766       3.74556875      -0.64840978
C        7.82516670       3.23430872       0.03793998
C        6.57157755       5.23850822      -0.73974973
O        5.18667793       5.53416824      -0.58220977
H        4.63100863      -0.05158998      -1.88884926
H        4.62836838       1.36026955      -2.97468877
H        3.72218871       1.41964948      -1.46740949
H        6.76921749       1.21489954      -1.69220936
H        5.83148813       1.28455949      -0.16294995
H        8.01240635       2.17141914       0.12874995
H        8.53650665       3.88628840       0.53784984
H        6.88871765       5.60369778      -1.72206938
H        7.12230730       5.78709793       0.03107999
H        4.71803856       4.78357792      -0.99417961
