16
Properties=species:S:1:pos:R:3 pbc="F F F"
C        0.86301965       0.06834998      -0.01718999
C        2.32636905       0.05299998      -0.32343990
C        3.22326875       0.83633965       0.29516989
C        4.65561819       0.86524969       0.04007998
C        5.24514771      -0.04527998      -1.00338960
C        5.44100809       1.70366943       0.73705971
H        0.54222977      -0.92365968       0.31530988
H        0.29748988       0.32933986      -0.91697961
H        0.60919976       0.78931969       0.76629972
H        2.63317895      -0.64650977      -1.09583962
H        2.86297894       1.52096939       1.06308961
H        4.81496811       0.16369994      -1.98883927
H        5.06084824      -1.09521961      -0.75139976
H        6.33020782       0.08071996      -1.09081960
H        5.04436779       2.37171912       1.49550951
H        6.51260757       1.74671936       0.56800979
