17
Properties=species:S:1:pos:R:3 pbc="F F F"
C        1.06475961       0.10332996      -0.11540996
C        2.55388904       0.07327997      -0.05005998
C        3.34326887      -0.62865973      -1.12245953
C        3.45035863       0.87279969      -0.98281962
C        2.85875893       1.71302938      -2.08892918
N        4.69123840       1.41707945      -0.40916985
H        0.67883974       0.90305966       0.52293980
H        0.65985978      -0.84513968       0.25085992
H        0.67997974       0.25702992      -1.12607956
H        2.88317895      -0.07063997       0.97424960
H        2.81282902      -1.03258955      -1.97750926
H        4.18836832      -1.23673952      -0.81975967
H        2.03768921       1.21086955      -2.60989904
H        3.62301874       1.94121921      -2.83968878
H        2.48122907       2.65814900      -1.68668938
H        5.04903793       0.82012969       0.33370987
H        4.51309872       2.32332921       0.02216999
