14
Properties=species:S:1:pos:R:3 pbc="F F F"
C        0.84624964      -0.00977000      -0.23399992
C        2.32324934      -0.02940999       0.05040998
C        2.69139910      -0.00700000       1.50835943
C        3.22748876      -0.76932967      -0.91157967
N        3.18911886       0.68928969      -0.89210969
H        0.63182980      -0.00360000      -1.30848944
H        0.38448986       0.88087964       0.20498993
H        0.36582986      -0.89373964       0.19804992
H        3.77592874      -0.02934999       1.66197932
H        2.26442909      -0.87578970       2.02008915
H        2.30294919       0.89838970       1.98630929
H        2.79002905      -1.24044955      -1.78363931
H        4.13269854      -1.23624957      -0.54261976
H        4.01153851       1.07186961      -0.42254984
