19
Properties=species:S:1:pos:R:3 pbc="F F F"
C        0.71586972      -0.59245980      -0.06274997
C        2.10183907      -0.03061999      -0.08132997
C        2.46749902       1.26717961      -0.12263995
C        1.50263953       2.42452931      -0.09715996
C        3.93511868       1.65351939      -0.14311995
C        4.31952810       2.36147928      -1.41240942
C        4.82414818       3.60195851      -1.45971942
H        0.65468973      -1.43353939      -0.76127970
H       -0.04898998       0.12749995      -0.36155984
H        0.47745982      -0.96502960       0.93800968
H        2.88332891      -0.79002970      -0.06873997
H        0.48145983       2.12767911       0.15137994
H        1.47923946       2.92532873      -1.07030964
H        1.80857933       3.15409899       0.66031975
H        4.57267857       0.76532972      -0.04983998
H        4.15104818       2.27402925       0.73575974
H        4.17756844       1.81189930      -2.34008908
H        4.98602772       4.18650866      -0.56004983
H        5.08466816       4.05936861      -2.40947914
