13
Properties=species:S:1:pos:R:3 pbc="F F F"
C        1.03668964       0.13399994       0.09160997
C        2.51805902      -0.07179997      -0.17418993
C        3.26799870       1.21914959      -0.09449997
C        3.86487842       1.70008934       1.20012951
O        4.66456842       1.07179964       0.18734993
H        0.49966979      -0.81693965       0.01915999
H        0.60114980       0.82968968      -0.63295978
H        0.87175965       0.54617977       1.09221971
H        2.65226912      -0.50126982      -1.17389953
H        2.91627884      -0.79986972       0.54372978
H        2.97941875       1.94028926      -0.84744966
H        3.67576861       1.14015961       2.10721922
H        3.99019861       2.76621914       1.34361959
