12

N    1.03056900   0.02161300  -0.00745700
N    2.33701300   0.00050000   0.00051300
C    3.15186600   1.13965900   0.00408200
C    4.43404100   0.69946800   0.01118700
C    4.41023000  -0.76636000   0.01178900
C    3.11447000  -1.16470400   0.00492300
H    0.54859300   0.91716600  -0.00665000
H    0.51988300  -0.85788600  -0.00586200
H    2.72036100   2.13829900   0.00106900
H    5.32348100   1.32636300   0.01564100
H    5.27886600  -1.42177600   0.01691600
H    2.65061400  -2.14873200   0.00282800