14

O    2.80588400  -0.54646500   1.24402100
C    2.27365800  -0.18467100  -0.00347500
C    2.91790000   1.15744900  -0.29837300
O    2.96244700   1.96428600   0.86658800
C    4.42014900   1.18219400  -0.29427200
C    5.15197600   2.20774400  -0.85883900
H    2.36582900  -1.31959700   1.61287500
H    1.17862000  -0.05363500   0.02778300
H    2.51918800  -0.90044800  -0.80648100
H    2.45171800   1.70872600  -1.12327900
H    2.98020000   1.32244100   1.61833100
H    4.90795000   0.39489600   0.29244600
H    4.66409800   3.09184400  -1.28142000
H    6.24312300   2.14620200  -0.91047400