13
Properties=species:S:1:pos:R:3 pbc="F F F"
C        0.95729965      -0.02963999       0.00517000
C        2.47698903      -0.00837000       0.00455000
C        3.01600885       1.41685951       0.00858000
C        4.52501822       1.46681941       0.00716000
O        5.25713825       0.48369983      -0.00436000
H        0.59237981      -1.06157959       0.00372000
H        0.55761981       0.47317982      -0.88135964
H        0.55823976       0.47048983       0.89347965
H        2.84607887      -0.54594976      -0.87713969
H        2.84693885      -0.55089974       0.88285965
H        2.66972899       1.95448935       0.89797968
H        2.66771913       1.96089923      -0.87610966
H        4.95566845       2.48304915       0.01599999
