11
Properties=species:S:1:pos:R:3 pbc="F F F"
C        1.02152967      -0.01752999      -0.07321997
C        2.49714923       0.12547995       0.03879999
O        3.23240900      -0.49766982      -1.01918960
C        3.28252864       0.93987966      -0.95951962
C        4.56018829       1.46703947      -0.58818978
N        5.58356810       1.91994929      -0.27881989
H        0.52365983       0.70418972       0.58147979
H        0.71557975      -1.02285957       0.23213992
H        0.66818976       0.15063995      -1.09581959
H        2.86335897       0.00597000       1.05021966
H        2.74264908       1.48295939      -1.72450936
