15
Properties=species:S:1:pos:R:3 pbc="F F F"
C        1.03546965      -0.18652992      -0.36022988
C        2.51933908      -0.31352988      -0.13634995
O        3.08510876      -1.40186942      -0.23851991
C        3.26087856       0.96927965       0.18077992
C        4.72052860       0.76054972       0.42639983
C        5.75380802       1.06322956      -0.62679976
O        5.48458815       1.97484934       0.44914985
H        0.58530980       0.38654986       0.45576984
H        0.57804978      -1.17981958      -0.37725988
H        0.85158968       0.31264988      -1.31503952
H        2.81135893       1.40257955       1.08134961
H        3.10131884       1.66462934      -0.65178972
H        4.93716812       0.01431999       1.18031955
H        5.42977810       1.34936953      -1.61863947
H        6.68821764       0.51681983      -0.59694976
