15
Properties=species:S:1:pos:R:3 pbc="F F F"
C        0.89976966       0.83852971      -0.20283993
O        2.17928910       0.81438971       0.42123985
C        3.01447892       1.89113927       0.14496994
C        2.48042917       3.26926875      -0.11183996
O        1.30107951       3.58697867       0.00400000
C        4.33623838       1.64869940       0.14099994
C        5.48805809       2.57700896      -0.06964997
H        0.51053983      -0.18436994      -0.20018992
H        0.95967960       1.16963959      -1.24513960
H        0.20249993       1.45400941       0.37232986
H        3.21868896       4.01956844      -0.42616984
H        4.63794851       0.61854976       0.33484986
H        5.21623850       3.63363862      -0.05769998
H        5.97414732       2.35483909      -1.02459955
H        6.22446775       2.42711926       0.72704971
