17

C    0.97546100   0.12977000   0.12938700
C    2.48061500  -0.04235200   0.19231500
O    3.12665900   1.02451100   0.73845200
C    4.45114700   0.63912300   1.10765100
C    4.32170800  -0.84304300   1.48412400
C    3.13814800  -1.27465000   0.68968600
C    2.71788500  -2.56153900   0.41087200
H    0.49666800  -0.69930800  -0.40653800
H    0.74485300   1.06788800  -0.38967600
H    0.58025100   0.18403900   1.15320200
H    2.85374900  -0.20661300  -0.88784900
H    5.12461700   0.78217500   0.24527700
H    4.77990100   1.28667500   1.92742500
H    5.22806200  -1.44072600   1.31583900
H    4.03539800  -0.97460800   2.54786100
H    1.92913600  -2.75858900  -0.32111000
H    3.15595400  -3.41600000   0.93515700