13
Properties=species:S:1:pos:R:3 pbc="F F F"
C        1.13020968      -0.25267991      -0.22794992
O        2.39983916       0.03388999       0.34246990
C        2.89400887       1.33854949       0.00000000
C        2.36522913       2.35599899       1.00859964
C        4.33800840       1.33854949       0.00000000
N        5.48901796       1.33854949       0.00000000
H        0.83480972      -1.25853956       0.08319997
H        1.18710959      -0.23097992      -1.31994951
H        0.37342986       0.45383981       0.12455995
H        2.54509926       1.61103940      -1.00406957
H        2.64756918       2.07866931       2.03101921
H        1.27191949       2.40173912       0.98645961
H        2.75294900       3.36008883       0.80598968
