13
Properties=species:S:1:pos:R:3 pbc="F F F"
C        0.81690973       0.01172999      -0.06865998
C        1.93861938       0.32637990       0.59079975
C        2.87514901       1.33491957       0.03398999
C        2.54499888       2.80784893       0.29532990
O        3.74287868       2.96138906       1.10094953
C        4.07188845       1.64852929       0.96834970
O        5.00462818       1.05817962       1.46288943
H        0.13384995      -0.73283976       0.33084989
H        0.54967982       0.47175983      -1.01502967
H        2.18157911      -0.16345994       1.53229940
H        3.19593859       1.11304963      -0.98965961
H        1.64405942       3.01744890       0.88041967
H        2.56884909       3.45403886      -0.58719975
