19
Properties=species:S:1:pos:R:3 pbc="F F F"
C        2.44900918      -0.48536980      -1.44234943
C        2.53901887       0.02916999      -0.00699000
N        3.23670888      -0.96158963       0.82769972
C        3.28394890       1.37063944       0.01721999
C        2.59736896       2.61257911      -0.60676974
C        3.18994880       3.36258888       0.60092980
N        3.16545892       2.07668924       1.33035958
H        1.89787936       0.21936992      -2.07479930
H        1.92719936      -1.44811940      -1.48521936
H        3.44290876      -0.61575973      -1.88677931
H        1.52285945       0.15490995       0.38617983
H        4.13580847      -1.19268954       0.41006985
H        2.69844890      -1.82618940       0.84095967
H        4.32969856       1.26925957      -0.31267989
H        1.50123942       2.57737923      -0.61776978
H        2.95999885       2.92217898      -1.58994937
H        4.19807816       3.75970864       0.43583983
H        2.55976892       4.14670849       1.02817965
H        3.93865871       1.89656937       1.96772921
