17
Properties=species:S:1:pos:R:3 pbc="F F F"
C        4.07121849      -0.41712984       2.11047935
O        4.88338804      -0.08441997       0.99309963
C        4.66656828       1.25669956       0.56159979
O        5.13469791       2.22889900       1.49631941
C        6.51349735       2.09950924       1.81923926
C        5.27493811       1.50054944      -0.79632968
C        5.99819756       0.63575977      -1.52320945
H        4.23481846      -1.47109950       2.34972906
H        3.01121879      -0.27540988       1.87986934
H        4.35028839       0.18083993       2.98303890
H        3.58682847       1.41767943       0.44850984
H        6.74874735       2.84026885       2.58854914
H        7.14492702       2.30545902       0.95064962
H        6.73751783       1.10852957       2.22411919
H        5.09027815       2.49164915      -1.20340955
H        6.21418762      -0.36484987      -1.16040957
H        6.39312744       0.91615969      -2.49388909
