17
Properties=species:S:1:pos:R:3 pbc="F F F"
C        0.92984968      -0.02636999      -0.08022997
C        2.44114900      -0.02013999       0.15271994
C        3.09391880       1.24020958      -0.44483984
O        3.20514870       1.13078964      -1.86646938
C        4.11239862       0.09096997      -2.24790931
C        3.83129835      -1.19774950      -1.53060937
C        3.05391884      -1.26340950      -0.43930984
H        0.46620983       0.85379964       0.37725988
H        0.46884981      -0.91356969       0.36850986
H        0.68208975      -0.02168999      -1.14773965
H        2.62064886      -0.01595999       1.23412955
H        2.49459910       2.12908912      -0.22188993
H        4.09170818       1.40810955      -0.01884999
H        5.14018822       0.41755986      -2.05449915
H        4.00311852      -0.05570998      -3.32695866
H        4.28061819      -2.09964919      -1.93457925
H        2.85530901      -2.21884918       0.03967999
