13

C    0.95068100   0.04787100   0.00880400
C    2.16207700   0.03696500  -0.02902300
C    3.56696900  -0.00544000  -0.06866300
C    4.39846800  -1.13895700   0.06581700
C    5.80115900  -0.69629400  -0.04272300
C    5.67699000   0.81647700  -0.25409800
O    4.24857700   1.08457400  -0.24599700
H   -0.12885500   0.06410600   0.04149000
H    4.03967300  -2.15695300   0.22197400
H    6.37124200  -0.96844800   0.86512800
H    6.31425300  -1.21610900  -0.87330500
H    6.05438100   1.17471300  -1.22093900
H    6.11174500   1.42695400   0.54826600