15
Properties=species:S:1:pos:R:3 pbc="F F F"
N        2.80793905      -0.72501975       0.97436965
C        2.31475902       0.20210993      -0.03263999
C        2.84345889       1.59207940       0.20993993
C        2.00736928       2.61077905       0.48587981
C        4.34426832       1.73500931       0.10466997
O        4.74734831       3.10020876       0.09749997
H        2.38367915      -1.63851941       0.82240969
H        2.48159909      -0.41532984       1.88990927
H        1.21861959       0.18701993      -0.02324999
H        2.62668896      -0.13870995      -1.02623963
H        0.93344969       2.46574903       0.55208981
H        2.37441897       3.61381865       0.68322974
H        4.70912790       1.27851951      -0.82174969
H        4.83720779       1.24422956       0.94932961
H        4.33099794       3.50165868      -0.68297970
