13
Properties=species:S:1:pos:R:3 pbc="F F F"
C        0.89328969       0.08174997      -0.07053997
C        2.38845921       0.07176998      -0.06926998
N        3.05789876       1.06233954       0.42380986
N        4.42755842       0.82905972       0.31402987
C        5.09660816       1.81255925       0.80350971
C        6.51443768       1.61293936       0.71058977
C        7.70296669       1.45141947       0.63557976
H        0.53348976      -0.78501970       0.48967981
H        0.54010975       0.00290000      -1.10185957
H        0.50657982       0.99822962       0.38157985
H        2.88427877      -0.81378973      -0.50553983
H        4.68388844       2.72759891       1.25463951
H        8.75566673       1.29925942       0.56462979
