15
Properties=species:S:1:pos:R:3 pbc="F F F"
N        1.01964962       0.06699997       0.00404000
C        2.47063899       0.02529999      -0.01062000
C        3.03953886       1.34197950       0.45925984
C        3.79035854       1.14953959       1.55865943
C        3.82473850      -0.24470991       2.01643920
N        4.41188860      -1.27148950       1.17173958
C        2.98296881      -0.99625963       0.99908960
H        0.66104972      -0.83405966      -0.30642989
H        0.70135975       0.74531972      -0.68471974
H        2.83709884      -0.21551992      -1.01454961
H        2.87309909       2.29110909      -0.02659999
H        4.30752850       1.93975925       2.08768916
H        3.67004871      -0.45638981       3.06639886
H        4.96586800      -0.84285963       0.42936984
H        2.28492928      -1.74667943       1.33835948
