8
Properties=species:S:1:pos:R:3 pbc="F F F"
C        0.99999964       0.00000000       0.00000000
C        2.19015908       0.00000000       0.00000000
C        3.63415861       0.00000000       0.00000000
C        4.11617851       1.36116946       0.00000000
N        4.50038815       2.44615912       0.00000000
H       -0.06618997       0.00674000       0.00000000
H        4.01240826      -0.53382981      -0.87861967
H        4.01240826      -0.53381979       0.87862968
