15

C    0.92253700  -0.04043400   0.45298100
C    2.32672500   0.01250700  -0.15505200
C    3.30347800   1.04952100   0.44535100
C    4.11087100   0.09916800   1.29895000
O    5.41306000   0.01593900   1.30240100
C    3.14003600  -1.20784700   0.21013100
O    3.32168000  -2.33351100   0.06922000
H    0.34878700  -0.88579100   0.05172000
H    0.40475800   0.89083100   0.18372300
H    0.95208700  -0.11358200   1.54950900
H    2.27320400   0.04306300  -1.25748200
H    2.81316900   1.83517100   1.03840700
H    3.92306100   1.53050800  -0.32574600
H    3.68023300  -0.23483700   2.25577600
H    5.83574700   0.47511400   0.55950800