19
Properties=species:S:1:pos:R:3 pbc="F F F"
C        2.30910921      -0.43796983      -1.44451952
C        2.49635911       0.02609999      -0.00164000
N        3.22638869      -0.99402958       0.75466967
C        3.26495886       1.34173942       0.02957999
C        2.52693915       2.60040879      -0.48226982
N        3.15477896       3.37088871       0.61677980
C        3.29188871       2.10269928       1.37579954
H        1.73381937       0.29667991      -2.01894927
H        1.76739931      -1.38947952      -1.48608947
H        3.27101874      -0.57062978      -1.95377922
H        1.51001942       0.15382993       0.45905983
H        4.10442829      -1.21290958       0.28466988
H        2.69179893      -1.86271930       0.75551975
H        4.27001810       1.25005949      -0.41196984
H        1.43334949       2.56241894      -0.41139984
H        2.80042887       2.93229890      -1.48814952
H        4.05627871       3.77388859       0.35880989
H        4.21758842       2.01249933       1.95179927
H        2.44345903       1.90642929       2.04234934
