21
Properties=species:S:1:pos:R:3 pbc="F F F"
N        0.81002975       1.17549956       1.46017945
C        2.07966924       0.90356970       0.79569972
C        2.92488909       2.17378926       0.72896975
C        4.25791836       1.91535926       0.02326999
C        5.10750818       3.18681884      -0.04358998
C        6.43824768       2.92766881      -0.74834973
N        7.23405695       4.14795876      -0.78976971
H        0.28313991       0.30766988       1.55232942
H        0.98310965       1.50634933       2.40902901
H        1.87972927       0.52903980      -0.21401991
H        2.61485887       0.11941995       1.34284949
H        3.11590886       2.54721904       1.74255931
H        2.37497926       2.95790887       0.19411992
H        4.07093859       1.54519939      -0.99235964
H        4.81074810       1.13215947       0.55650979
H        5.29161835       3.55653882       0.97338963
H        4.55090857       3.96921849      -0.57522982
H        6.26300764       2.57293916      -1.76939929
H        7.00072765       2.15265918      -0.21710992
H        6.72895765       4.87065792      -1.30118954
H        8.09167671       3.97523856      -1.31248951
