13

C    0.85699300  -0.23466900  -0.20779600
C    2.33139000  -0.24113800   0.02835100
C    3.08753700  -1.43406100  -0.04522800
N    2.98053500   0.88399000   0.31691200
C    2.44176800   2.21766400   0.44840500
O    3.17575600   3.10791300   0.71358100
H    0.59967400   0.41795500  -1.05692900
H    0.32012900   0.13362600   0.68062700
H    0.49897100  -1.24539100  -0.43079000
H    2.59547100  -2.38007100  -0.27920900
H    4.16758200  -1.43615100   0.12818700
H    3.99262200   0.85557800   0.47512900
H    1.35034200   2.29045400   0.28591000