22
Properties=species:S:1:pos:R:3 pbc="F F F"
C        3.51106858      -1.10611951      -0.42487982
C        2.82531881      -0.16787992       0.55831981
C        3.30444860       1.29947948       0.46361983
C        2.41118932       2.16808915       1.36258948
C        4.82149839       1.47044945       0.75271976
C        5.30107832       2.91176891       0.55911976
N        5.18698788       1.01283967       2.09517932
H        3.04211879      -2.09479928      -0.38686985
H        4.57034826      -1.23743951      -0.18718992
H        3.42664862      -0.73155975      -1.44980955
H        2.95970893      -0.55131978       1.57679939
H        1.74717939      -0.20208994       0.35589987
H        3.13131881       1.63164937      -0.56964982
H        2.50645924       1.89335930       2.41782904
H        1.35781956       2.04955935       1.08463967
H        2.64870882       3.23079872       1.25983953
H        5.37798834       0.85752970       0.03497998
H        4.89479780       3.58999872       1.31685948
H        5.00970793       3.28786874      -0.42750984
H        6.39407778       2.96718884       0.62372977
H        4.74731827       1.60711932       2.79670906
H        6.19174767       1.11994958       2.23118925
