15

C    0.93129100  -0.05690200  -0.11254600
C    2.13722600  -0.03992000   0.03304100
C    3.56566000   0.01624800   0.15964700
C    4.26030800   1.19317600   0.89437700
C    5.64323400   0.58944000   1.13208100
C    5.31714400  -0.87371500   1.39129700
O    4.12399400  -1.14896700   0.66564900
H   -0.14259500  -0.06757200  -0.22576000
H    3.95842100   0.04979300  -0.90381300
H    3.71369000   1.38912300   1.82959800
H    4.25701300   2.10408200   0.28473200
H    6.27307300   0.68866300   0.23458800
H    6.17295000   1.04743800   1.97627500
H    6.06149800  -1.63195800   1.10168600
H    5.04954100  -1.07432800   2.45040500