15
Properties=species:S:1:pos:R:3 pbc="F F F"
C        1.03166962       0.06756998       0.21418993
C        2.50414896      -0.06428998      -0.13261995
C        2.77853894      -0.07497998      -1.62631941
O        3.28934860       0.96292967       0.53229982
C        4.07787848       0.02613999       1.30804956
C        3.27599883      -1.10786963       0.67932975
O        3.26259875      -2.31600904       0.77937973
H        0.87787968       0.12047996       1.29775953
H        0.46405983      -0.79046971      -0.16148995
H        0.60372978       0.97474962      -0.22600991
H        3.85298872      -0.11739996      -1.83585930
H        2.38309932       0.82744974      -2.10494924
H        2.31133914      -0.94335967      -2.10264921
H        5.13371801       0.05006998       1.03332961
H        3.93241835       0.15360993       2.38178921
