17

C    0.94390100  -0.07423100   0.01745000
C    2.44315700   0.00801100   0.03470600
C    3.20672400   1.03451800   0.94775600
C    4.30257300   0.01501000   1.34323600
C    3.24256700  -0.99305100   0.93933400
C    3.65342800  -2.23508800   0.05630700
O    4.69667000  -2.37402900  -0.46318700
H    0.59444400  -0.95082900  -0.55084800
H    0.53439700   0.81122900  -0.49329300
H    0.52220800  -0.11479100   1.03178100
H    2.86970000   0.05957400  -0.97853000
H    2.58639100   1.33847500   1.80069100
H    3.57277000   1.90023700   0.37354200
H    5.16300900   0.04373600   0.66337000
H    4.63504300  -0.01260900   2.38615700
H    2.61923800  -1.35842800   1.77042300
H    2.80553000  -2.96125200  -0.03446900