12

C    0.81053500   0.14099000   0.09944300
C    2.24424100   0.11336000   0.39268500
C    3.20904800   0.75672600  -0.35625300
C    4.63012000   0.63831500   0.02981200
O    5.61549700   0.30949500  -0.72788500
O    4.74513200   0.98967800   1.19154800
H    0.41830900  -0.88984500   0.04706300
H    0.54563000   0.70415600  -0.80292300
H    0.29905900   0.58121800   0.97883800
H    2.57539100  -0.46876400   1.26241700
H    2.95237400   1.48598400  -1.13616900
H    5.35071100   0.04480500  -1.62333600