18
Properties=species:S:1:pos:R:3 pbc="F F F"
N        0.98122966      -0.02661999       0.01881999
C        2.43937922      -0.03282999       0.01366999
C        2.97294903       1.39810944      -0.00533000
C        4.50298834       1.41675937      -0.00015000
C        5.03612804       2.84749889      -0.01843999
N        6.49450779       2.84136891      -0.02778999
H        0.64049977      -0.98685962      -0.01067000
H        0.63750976       0.42214987      -0.82945967
H        2.79748893      -0.58388978      -0.86266965
H        2.79683900      -0.55645984       0.90668970
H        2.59767890       1.94608927       0.86849964
H        2.60435915       1.92128932      -0.89698970
H        4.87771845       0.86948967      -0.87422967
H        4.87144852       0.89333963       0.89100969
H        4.68070793       3.39751887       0.85996968
H        4.67641830       3.37308884      -0.90959960
H        6.84067726       2.39084911       0.81866968
H        6.83533764       3.80170870       0.00263000
