17

C    1.48614300  -0.63546700   0.53977900
C    2.63096700  -0.21110400  -0.09143000
C    3.16903600   1.07352600   0.11574400
C    4.33450300   1.50941300  -0.52496500
C    4.90916700   2.78756900  -0.34718900
C    6.47186400   2.92203200  -0.45921600
C    5.67697200   3.43277100  -1.55786200
H    1.08272300  -1.63579000   0.36717100
H    0.94590700   0.01592500   1.23298400
H    3.14470700  -0.89123600  -0.77887900
H    2.65944500   1.75831400   0.80237200
H    4.83352700   0.81176200  -1.20997300
H    4.41275300   3.48134900   0.33476000
H    7.02323100   1.98694300  -0.57932000
H    6.87773900   3.61259100   0.28367100
H    5.48805700   4.50580700  -1.63777900
H    5.63500200   2.87900400  -2.49828700