18

C    3.20692500  -1.61695600   0.78041700
C    2.79121700  -0.34534700   0.10337200
C    2.13386200  -0.27116200  -1.06145200
C    3.15433000   0.95949500   0.82317200
N    4.42616300   1.37098900   0.29788500
C    5.70644500   0.84433800  -0.03926500
C    5.01051900   1.86048600  -0.90565100
H    4.28246300  -1.62750900   1.02019200
H    2.98994900  -2.49033800   0.15248300
H    2.66958400  -1.73282000   1.73532600
H    1.82160200  -1.17797300  -1.58622500
H    1.84489900   0.68375100  -1.50978900
H    3.26673000   0.79570000   1.90505000
H    2.43088000   1.76226600   0.63523600
H    5.73167300  -0.21096800  -0.33562600
H    6.53663800   1.17917200   0.59503200
H    5.35694000   2.90093500  -0.87161500
H    4.52214500   1.55121900  -1.83688200