19
Properties=species:S:1:pos:R:3 pbc="F F F"
C        1.14015961      -0.43868983       0.53526980
C        2.42196918      -0.19723992      -0.27008989
C        2.64507914      -1.31970954      -1.29101944
O        1.67386937      -1.28496957      -2.33021903
C        2.36039925       1.20351958      -0.91620964
C        3.59607863       1.57821941      -1.72719944
O        4.75694847       1.47625947      -0.91398960
H        1.04234958       0.30445987       1.33407950
H        1.15522957      -1.42831945       1.00276959
H        0.24691990      -0.37201986      -0.09381996
H        3.25896883      -0.22382991       0.43844983
H        2.60476899      -2.30377913      -0.81119972
H        3.63155866      -1.23227954      -1.75569940
H        0.82371968      -1.55564952      -1.94260931
H        2.24239898       1.94076931      -0.11114996
H        1.47444940       1.29011953      -1.55712938
H        3.50999880       2.61179924      -2.07682920
H        3.71678853       0.93173969      -2.60080910
H        5.51081800       1.74987936      -1.46394944
