15

C    0.96892900  -0.00843400  -0.07001700
C    2.48868600   0.00285400   0.05470800
C    3.05472800   1.10487700   0.94421500
O    4.33735100   0.54799900   1.42239100
C    4.33066400  -0.71535800   1.29953600
O    5.24484800  -1.47680400   1.61272400
C    3.03749700  -1.28516500   0.71930600
H    0.63681300  -0.83677200  -0.70968500
H    0.63174300   0.92742000  -0.53997600
H    0.48025300  -0.10111700   0.91104900
H    2.94395400   0.08703300  -0.94464100
H    2.45595600   1.30891300   1.84322500
H    3.30534900   2.04095200   0.43353600
H    3.20473500  -2.13730700   0.04747800
H    2.44658000  -1.62533000   1.58925600