15

C    0.94234700  -0.01958800   0.01003200
C    2.44859100   0.05248000   0.03647600
C    3.09485900   1.16230300   0.88243600
C    4.48609800   0.65024900   1.19875400
O    4.29715400  -0.81061700   1.28303400
C    3.22551000  -1.16603800   0.69894900
O    2.77008300  -2.28311100   0.57807500
H    0.58131400  -0.84676200  -0.61422400
H    0.56760700   0.91747800  -0.42994800
H    0.52119900  -0.10796100   1.02131900
H    2.86950100   0.01083200  -0.98780600
H    2.51011400   1.32959300   1.79903600
H    3.10539900   2.09843200   0.30314700
H    5.22638000   0.81715100   0.40505500
H    4.89485800   0.95733700   2.16709200