17
Properties=species:S:1:pos:R:3 pbc="F F F"
C        1.95883930      -0.13311994      -1.59924936
O        2.20702934       0.36091986      -0.29199988
C        3.06927872       1.48936951      -0.28912988
C        2.31598926       2.76181889      -0.65682977
C        2.98433900       3.80132866       0.20396993
C        3.26295877       3.01158881       1.46054947
O        3.60661864       1.69215930       1.02815962
H        1.29759955      -1.00037968      -1.51851940
H        2.89208889      -0.45269981      -2.07312918
H        1.46314955       0.62261975      -2.21555901
H        3.92598844       1.32281947      -0.95319963
H        1.25352943       2.67469907      -0.39692986
H        2.37274909       2.98784900      -1.72598934
H        3.92611837       4.11675835      -0.25999990
H        2.36947918       4.68733835       0.38078985
H        4.08150816       3.43257880       2.05070925
H        2.37236905       2.94119883       2.09482908
