17
Properties=species:S:1:pos:R:3 pbc="F F F"
C        1.07284951      -0.07791997      -0.00383000
C        2.55359888       0.14246996      -0.07611997
C        3.45193863      -0.57629979      -1.12442958
C        4.45348835      -0.27763990       0.02760999
C        4.56995821       1.23737955       0.11153996
C        3.07856894       1.57206941       0.03312999
O        3.32325864      -0.63739973       0.94757962
H        0.65516973       0.33992985       0.91789961
H        0.82826966      -1.14501953      -0.02643999
H        0.56521982       0.39754987      -0.84911966
H        3.62022877      -0.06054998      -2.07287931
H        3.23303866      -1.63370943      -1.30068958
H        5.32680798      -0.92057961       0.13374995
H        5.01265812       1.56615949       1.05634964
H        5.13535786       1.66229939      -0.72301972
H        2.83565879       2.17966914      -0.84379971
H        2.73005891       2.07881927       0.93825966
