19
Properties=species:S:1:pos:R:3 pbc="F F F"
C        1.91154921      -0.51883984      -1.27923954
C        2.42481923       0.07576997       0.02229999
C        3.36095881       1.24202943      -0.25606990
C        2.73561907       2.56216908      -0.73017973
C        3.36138868       3.16250873       0.53191978
C        4.54665804       4.08645821       0.33479986
O        3.79346871       1.85619938       0.98569965
H        1.25702953      -1.37183952      -1.07577968
H        2.74031901      -0.86436969      -1.90536928
H        1.34250951       0.21854992      -1.85389936
H        2.95900893      -0.69987977       0.58289981
H        1.57719946       0.39538983       0.63992977
H        4.23806858       0.94172966      -0.84308964
H        1.64191937       2.58899903      -0.74370974
H        3.12184882       2.93725896      -1.68192947
H        2.62190914       3.58374858       1.22271955
H        5.30786800       3.63617849      -0.31141990
H        5.01551819       4.32216835       1.29573953
H        4.22777843       5.02844810      -0.12319995
