21

C    1.37849500   0.75420000  -0.31451500
C    2.66002300  -0.03790000  -0.06415900
N    3.50411300   0.57511400   0.93090500
C    4.83605700   0.99197500   0.71558700
C    4.81976700   2.42706500   0.09567300
C    6.27452900   2.92891300  -0.14311900
N    6.22917500   4.22012900  -0.72102700
H    0.76627200   0.21778700  -1.05154700
H    1.60195800   1.75470800  -0.70991200
H    0.78185300   0.85800300   0.60353700
H    3.25354300  -0.16412400  -0.98053600
H    2.40731200  -1.05066200   0.30439700
H    3.05536700   0.85217800   1.80619100
H    5.33589900   0.30230000   0.01810500
H    5.38159700   1.01531200   1.67061400
H    4.29958400   3.12268800   0.77076700
H    4.27644400   2.41186800  -0.86100300
H    6.78938200   2.20717000  -0.79844900
H    6.80670000   2.93107400   0.82223600
H    6.46646600   4.32273000  -1.69893400
H    6.47591300   5.01677100  -0.14855000