15

C    0.97102500  -0.86735900  -0.72941700
N    2.24233800  -0.31822200  -0.30084800
C    2.52812500   0.96867600  -0.09641800
N    1.54401300   1.84601200  -0.30723600
C    1.74666000   3.23392200  -0.11798200
C    3.85489500   1.29847300   0.32822200
C    4.97129200   1.59389300   0.68720000
H    1.12472300  -1.41643100  -1.67037300
H    0.25009200  -0.05721000  -0.86860100
H    0.61781300  -1.57452400   0.03586200
H    3.00414900  -0.97855000  -0.13594100
H    1.47189000   3.74054400  -1.06275800
H    2.75232400   3.53706200   0.20919900
H    0.97855300   3.58629900   0.59658900
H    5.96874600   1.85340900   1.00757100