20
Properties=species:S:1:pos:R:3 pbc="F F F"
C        0.89635968      -0.17310993      -0.07719997
C        2.42834902      -0.18434992       0.04290998
C        2.84885907      -1.00897956       1.26870942
N        2.98221898      -0.85465968      -1.14954960
C        3.00455880       1.25885952       0.09862997
C        2.53141904       2.10230923       1.25520945
C        1.82441938       3.23204875       1.12186956
H        0.56824982       0.41602984      -0.94120967
H        0.42709982       0.25298992       0.81608969
H        0.49829981      -1.18782961      -0.19650993
H        2.41603899      -0.60843974       2.19145918
H        3.93860865      -1.02024961       1.38702953
H        2.51366901      -2.04977918       1.18413949
H        2.67490888      -0.36652985      -1.99075925
H        2.60447907      -1.79934943      -1.22004950
H        2.77506900       1.77457929      -0.84452969
H        4.10083866       1.21146953       0.15446994
H        2.81116891       1.77409935       2.25375915
H        1.53332937       3.61307859       0.14782993
H        1.52457941       3.80549860       1.99384916
