13

N    1.07998100  -0.04158200  -0.01619600
N    2.35146600  -0.04990600  -0.01991900
C    2.99883400   1.11546700  -0.00972500
C    4.37309200   1.10480200  -0.01307600
C    5.61030400   1.12335600  -0.01608700
C    7.00340600   1.11269700  -0.02004500
C    7.73043000   2.26428800  -0.01084300
H    0.60666300  -0.94444400  -0.02354000
H    0.51558100   0.81613200  -0.00609000
H    2.45918500   2.07572800   0.00176500
H    7.49834900   0.13596300  -0.03082900
H    7.24819500   3.24511300   0.00001000
H    8.82241000   2.23049000  -0.01409700