8
Properties=species:S:1:pos:R:3 pbc="F F F"
C        1.00403965      -0.00295000      -0.00640000
C        2.51595926      -0.00702000       0.00059000
H        0.62234974       1.02239954      -0.00164000
H        0.61410975      -0.51973981       0.87560964
H        0.62236977      -0.50841981      -0.89856964
H        2.89764881       0.50209981       0.89061964
H        2.90588903       0.50608981      -0.88356966
H        2.89762878      -1.03242958       0.00006000
