15
Properties=species:S:1:pos:R:3 pbc="F F F"
C        0.99999964       0.00000000       0.00000000
C        2.19015908       0.00000000       0.00000000
C        3.59615874       0.00000000       0.00000000
C        4.34597874      -1.10460961      -0.07331997
C        5.80320787      -0.78239971      -0.05570998
C        5.81929779       0.72312975      -0.32011986
C        4.43658829       1.23511946       0.08093997
H       -0.06489997      -0.00190000      -0.00017000
H        3.96245837      -2.11417913      -0.12311995
H        6.23600769      -1.02558959       0.92072964
H        6.35159779      -1.32361948      -0.83270967
H        5.98537779       0.90838963      -1.38916957
H        6.62195778       1.23042953       0.22417991
H        4.09709835       2.02063918      -0.60162979
H        4.44024849       1.62939930       1.10339952
