16
Properties=species:S:1:pos:R:3 pbc="F F F"
C        1.01145959      -0.23603991       0.15196994
C        2.52489901      -0.08762997       0.13173996
C        2.94045877       1.35870945      -0.13820995
C        4.43567848       1.50391948      -0.15110995
C        5.13586807       1.92236936      -1.21683955
C        6.55212736       2.05484939      -1.19107950
N        7.70525694       2.16462922      -1.17481959
H        0.73519975      -1.27720952       0.34570989
H        0.57559979       0.05792998      -0.80821967
H        0.56691980       0.38506988       0.93615967
H        2.93966889      -0.74814969      -0.63942975
H        2.93005896      -0.42288986       1.09431958
H        2.53541899       2.01351929       0.64259976
H        2.51025891       1.69452929      -1.08971953
H        4.95443821       1.25788951       0.77528971
H        4.63935804       2.17733932      -2.14654922
