11
Properties=species:S:1:pos:R:3 pbc="F F F"
N        1.01659966      -0.03299999      -0.12441996
C        2.46838927      -0.06698997      -0.00052000
C        3.26918864      -0.74982971      -1.06976962
C        3.29450893       0.74722970      -0.95187962
H        0.62382972       0.72705972       0.42998984
H        0.60251981      -0.89137965       0.23734991
H        2.84196901      -0.15492995       1.01757967
H        2.74359918      -1.18033957      -1.91430926
H        4.15354824      -1.29862952      -0.76909971
H        4.19625854       1.21220958      -0.57203978
H        2.78576899       1.32191944      -1.71732938
