17
Properties=species:S:1:pos:R:3 pbc="F F F"
C        0.98768967      -0.05149998       0.22574991
C        2.37886906       0.13044995      -0.28959990
C        3.16339874       1.20114958      -0.08535997
C        2.80814886       2.47378898       0.60411978
C        3.61720872       3.45345855      -0.21874991
O        4.84032822       2.77904892      -0.54133981
C        4.53777790       1.37715948      -0.65524977
H        0.87983966      -1.05574954       0.64821976
H        0.26878989       0.05439998      -0.59243983
H        0.73096973       0.66391975       1.01175964
H        2.76901889      -0.69970971      -0.87705970
H        3.17534876       2.44357896       1.63565946
H        1.74490941       2.72283912       0.60091978
H        3.10870886       3.71495867      -1.15479958
H        3.83954859       4.37490845       0.32640988
H        4.59076834       1.09161961      -1.71041942
H        5.28726816       0.82407969      -0.08114997
