19
Properties=species:S:1:pos:R:3 pbc="F F F"
C        0.99298960       0.00074000      -0.02399999
C        2.52220917      -0.04548999       0.05823998
C        2.94704890      -0.84156966       1.29332960
O        3.01369905      -0.74650973      -1.08941948
C        3.09624887       1.38711941       0.06053998
C        4.62303829       1.46753943       0.05269998
O        5.16281843       0.86949962      -1.11701953
H        0.66444975       0.53135979      -0.92490965
H        0.55762982       0.49903983       0.84837967
H        0.57522982      -1.01015961      -0.09260996
H        2.66290903      -0.33136988       2.21942902
H        4.02758837      -1.01885962       1.30572951
H        2.48284912      -1.83491933       1.29172957
H        2.62048888      -0.33218989      -1.88013923
H        2.71413898       1.93991935       0.92749965
H        2.73880911       1.90099931      -0.84199971
H        5.06303787       0.98708963       0.93079960
H        4.93599796       2.51626897       0.06132998
H        4.77001810      -0.02657999      -1.17827952
