13
Properties=species:S:1:pos:R:3 pbc="F F F"
C        1.05977952       0.02356999       0.21674992
C        2.37018919      -0.04055998      -0.03331999
C        3.25070882      -1.23801959      -0.16790995
C        4.59568787      -0.65475976      -0.47089982
C        4.60109806       0.68350977      -0.51502979
C        3.23120880       1.15356958      -0.24355991
O        2.88604879       2.31835914      -0.20347993
H        0.55227977       0.98281962       0.28199989
H        0.46623981      -0.87269968       0.35943985
H        2.92225885      -1.88479936      -0.98734963
H        3.28705883      -1.81209934       0.76328969
H        5.47263813      -1.26600957      -0.63565981
H        5.42336798       1.34950948      -0.70972973
