17
Properties=species:S:1:pos:R:3 pbc="F F F"
C        0.88685966       0.06361998       0.09358996
C        2.39946914       0.04490998       0.01523999
C        3.14709878       1.01757967       0.93444967
O        4.02083874      -0.04139999       1.39900947
C        3.12627888      -1.04380953       0.83430964
C        3.74150872      -2.13026905       0.02798999
C        5.02375793      -2.09584928      -0.35497987
H        0.46333984      -0.78428972      -0.45410982
H        0.49028984       0.98225963      -0.35039988
H        0.53276980       0.00842000       1.12831950
H        2.74112892       0.12078996      -1.02569962
H        2.57376909       1.44481945       1.76326931
H        3.70269847       1.80795932       0.42233983
H        2.51763892      -1.47429943       1.64113939
H        3.11136889      -2.97127891      -0.24376991
H        5.67874765      -1.27034950      -0.09038996
H        5.45144796      -2.90381885      -0.93957967
