12
Properties=species:S:1:pos:R:3 pbc="F F F"
C        0.74116969       0.09858996       0.06057998
C        2.07797933      -0.00723000       0.02449999
N        2.83134913      -1.16618955       0.00187000
C        2.43667889      -2.46556902       0.01295999
N        3.20944881      -3.49269867      -0.01260000
C        2.87112880       1.19034946       0.00523000
N        3.54466867       2.13416910      -0.01131000
H        0.24933991       1.06820953       0.07548998
H        0.09084997      -0.76835972       0.07607997
H        3.83453870      -1.01082969      -0.02800999
H        1.34606946      -2.61961913       0.04767998
H        4.19198847      -3.21363878      -0.04393999
