15

C    4.61895000   1.70429600  -4.44860900
C    4.33561900   1.78938700  -3.27746200
C    3.93667800   1.90804900  -1.88847700
O    5.01524500   1.66663800  -0.92718800
C    6.20213100   1.32664800  -1.27758100
C    7.19591400   1.01926100  -0.22527200
C    6.75453700  -0.34583900  -0.57267300
H    4.86022200   1.63329100  -5.49662800
H    3.15522900   1.18274500  -1.61993800
H    3.57535300   2.91755000  -1.64723400
H    6.46095200   1.33106600  -2.34589200
H    6.90146500   1.37531500   0.76816800
H    8.22372200   1.26724600  -0.51573800
H    7.26146200  -0.92938300  -1.34603500
H    5.93128000  -0.81162600  -0.02435400