17
Properties=species:S:1:pos:R:3 pbc="F F F"
C        1.29155946      -0.56919980      -0.03691998
C        2.78608894      -0.30299988      -0.03134999
C        3.11469889       1.18009961       0.01522999
O        2.24546909       2.04752922       0.11141996
C        4.59047842       1.54634941      -0.00298000
C        5.08996820       1.68357944       1.40323949
C        6.06148815       0.93307960       1.93805933
H        1.09616959      -1.64496934      -0.07995997
H        0.81171972      -0.09908997      -0.90165967
H        0.81786972      -0.17145993       0.86657965
H        3.23303866      -0.72329974      -0.93837965
H        3.24114895      -0.78472972       0.84014970
H        4.70434856       2.49607897      -0.53635979
H        5.14351797       0.79109973      -0.57130975
H        4.62112808       2.45615911       2.01193929
H        6.56669760       0.15535995       1.37334943
H        6.37870789       1.08986962       2.96548891
