19
Properties=species:S:1:pos:R:3 pbc="F F F"
C        1.03401959       0.03377999      -0.03436999
C        2.52141905      -0.05598998      -0.07289997
C        3.21210885      -0.71607971      -1.22959948
C        3.31274891       0.78362966      -1.05537963
C        4.59938812       1.49077940      -0.63744974
C        5.97556782       0.98782963      -1.00383961
C        5.45059776       2.23825908      -1.63788939
H        0.72518969       0.87532967       0.59263974
H        0.61363977      -0.88191962       0.39174986
H        0.60371977       0.17472994      -1.03065956
H        2.93967891      -0.21025993       0.91594970
H        2.61423898      -1.08707952      -2.05446935
H        4.08200836      -1.32482946      -1.01140964
H        2.71210885       1.37031949      -1.75301933
H        4.52595854       1.97146928       0.33967987
H        6.05929756       0.10574996      -1.62754941
H        6.76060772       1.08113956      -0.26204988
H        5.87835789       3.18536878      -1.33034945
H        5.16965771       2.19580913      -2.68393898
