16
Properties=species:S:1:pos:R:3 pbc="F F F"
C        0.83276969       0.29361987      -0.36605987
C        2.24710894       0.04132998       0.08933996
C        2.47963905       0.15513995       1.58280945
N        2.11062932      -1.09313965       2.23979926
C        3.08306885      -0.94443965      -0.70272976
N        3.31478882       0.48882982      -0.82497972
H        0.73475975       0.23800991      -1.45590949
H        0.50235981       1.28976953      -0.05225998
H        0.15113994      -0.44619983       0.06645998
H        1.89592934       0.98482960       1.99817920
H        3.53406858       0.36319989       1.80077934
H        1.11328959      -1.25687957       2.11561918
H        2.25593925      -0.99522966       3.24314880
H        2.63887906      -1.43189943      -1.56150937
H        3.83877850      -1.52301943      -0.18594992
H        4.15811825       0.75474972      -0.31467989
