15
Properties=species:S:1:pos:R:3 pbc="F F F"
C        0.99999964       0.00000000       0.00000000
C        2.44399905       0.00000000       0.00000000
C        3.63415861       0.00000000       0.00000000
C        5.07815790       0.00000000       0.00000000
O        5.56924772      -0.61780977      -1.19843948
C        5.65774775       1.42066944       0.06639998
O        7.08641720       1.37544954       0.04510998
H        0.60600978       1.02087963       0.01187000
H        0.60591978      -0.52070981       0.87812972
H        0.60597974      -0.50010979      -0.89005965
H        5.47378778      -0.59076983       0.83266968
H        4.97593832      -0.34307986      -1.91969931
H        5.34269810       1.94001925       0.97687966
H        5.34130764       2.01435924      -0.79816973
H        7.32028723       0.68305969      -0.60420978
