17
Properties=species:S:1:pos:R:3 pbc="F F F"
C        2.88993883      -1.65702939       1.09153962
C        3.33088875      -0.27878991       1.50980949
C        3.21950865       0.11312996       2.79268885
C        3.87873840       0.57495981       0.38337985
O        2.77227902       1.14782953      -0.30081990
C        4.84776783       1.64362943       0.82274967
C        4.74030828       2.96708894       0.63017976
H        2.13696933      -1.59567940       0.29833990
H        2.45084906      -2.22173905       1.92205930
H        3.74564862      -2.23065901       0.71657974
H        2.81565881      -0.54664981       3.55521870
H        3.51525855       1.10472965       3.11948895
H        4.41172838      -0.06254998      -0.33158988
H        2.22287917       1.56067944       0.38645986
H        5.73657751       1.27310956       1.33208954
H        3.89492869       3.40271854       0.10753996
H        5.51403809       3.64261842       0.98095959
