14
Properties=species:S:1:pos:R:3 pbc="F F F"
C        1.78620934      -0.40720984       0.63052976
N        3.16216874       0.04118998       0.45145983
C        3.19477868       1.42114949      -0.06267998
C        4.65181828       1.87772930      -0.20695992
O        5.33239794       1.71718931       1.03536963
H        1.78387928      -1.43457937       1.00874960
H        1.23405957      -0.39536983      -0.31524986
H        1.25873947       0.21422993       1.36180949
H        3.62491870      -0.57600975      -0.21722992
H        2.68998909       2.08054924       0.65327978
H        2.68664885       1.49461937      -1.03050959
H        4.70135832       2.93153882      -0.49648982
H        5.17624807       1.28418946      -0.96303964
H        4.92745829       0.92245960       1.43992949
