16
Properties=species:S:1:pos:R:3 pbc="F F F"
C        1.08457959      -0.23284991      -0.99763966
C        2.11310911      -0.12866996      -0.14544995
C        2.92467880       1.11163962       0.06371997
N        4.32339859       0.81811970      -0.22225992
C        5.15726805       1.99418926       0.00160000
C        6.54857779       1.68437946      -0.34796986
C        7.68924713       1.43173945      -0.63476974
H        0.53922981      -1.16683960      -1.09363961
H        0.76631969       0.60025978      -1.61603940
H        2.39068913      -0.99341959       0.45444983
H        2.80729890       1.42523956       1.10767961
H        2.56173921       1.92577934      -0.57524979
H        4.40771866       0.54112983      -1.19934952
H        5.10794830       2.29841900       1.05342960
H        4.81052780       2.83596897      -0.60941982
H        8.69765663       1.20054948      -0.88491970
