15
Properties=species:S:1:pos:R:3 pbc="F F F"
N        2.47452927      -1.39197946       1.12000954
C        2.74912882      -0.68237972      -0.00839000
N        2.61281896      -1.19723952      -1.18137956
C        3.24463892       0.74096972       0.11374996
C        4.76799822       0.75810975       0.11562996
C        5.28289795       2.13035917       0.24397990
C        5.70560789       3.25018883       0.34094986
H        2.31510901      -0.86558968       1.97259927
H        1.86114931      -2.19138932       1.02236962
H        2.30444908      -2.16812921      -1.10199964
H        2.84847903       1.18550956       1.03458953
H        2.85215902       1.32655942      -0.72652972
H        5.15180779       0.30493990      -0.80621970
H        5.14746809       0.14638995       0.94322968
H        6.08170795       4.24420834       0.41908982
