19
Properties=species:S:1:pos:R:3 pbc="F F F"
C        0.89805967      -0.03084999       0.03210999
C        2.40598917      -0.15236995      -0.20222993
C        2.66364884      -0.97010964      -1.46969938
C        3.03613877       1.24614954      -0.29261988
C        4.55177832       1.25257957      -0.17603993
C        5.21992779       2.59689903      -0.31397989
O        5.21214819       0.24445991       0.06877998
H        0.69066972       0.51819980       0.95645964
H        0.43732986      -1.02010965       0.12243995
H        0.40886986       0.49735981      -0.79347968
H        2.83652878      -0.69279975       0.64982975
H        2.26332927      -0.46729982      -2.35673904
H        2.18757915      -1.95499933      -1.39839947
H        3.73406863      -1.13478959      -1.63004935
H        2.66044903       1.87247932       0.52576983
H        2.76121879       1.72440934      -1.23950958
H        4.85700846       3.10111880      -1.21399951
H        6.30207777       2.46450901      -0.40389985
H        5.00233793       3.20300865       0.56958979
