12

O    0.98098500  -0.07332400  -0.15205500
C    2.22310400  -0.15852800   0.11729500
C    3.15559900  -0.62565800  -0.91167700
C    3.47285400   0.79290600  -1.28526800
C    4.61676000   1.53224400  -0.74286600
O    4.80756400   2.68226100  -1.06123100
H    0.43920300   0.34207700   0.54352700
H    2.58441800   0.16644300   1.10487700
H    2.65718900  -1.18926600  -1.71163900
H    4.01786900  -1.15609500  -0.48331200
H    2.81587200   1.32442600  -1.98372300
H    5.29511900   0.98553300  -0.04652600