15
Properties=species:S:1:pos:R:3 pbc="F F F"
C        1.08997953       0.00483000      -0.18528993
N        2.51636887      -0.01416999       0.02968999
C        3.28098869      -1.13689959       0.23048991
C        4.56291819      -0.81286973       0.44245985
C        4.75054836       0.68567973       0.39632985
C        3.30652857       1.11191952       0.10848996
N        2.95176888       2.34469914      -0.02699999
H        0.70679975       1.01915956      -0.33720988
H        0.56989980      -0.42254984       0.67873973
H        0.82925969      -0.58559978      -1.07033968
H        2.83478880      -2.12189937       0.20687991
H        5.36061811      -1.51630938       0.62640977
H        5.08358812       1.08825958       1.35562956
H        5.41214752       0.99501961      -0.41644984
H        3.76531863       2.95652890       0.08334997
