16
Properties=species:S:1:pos:R:3 pbc="F F F"
C        1.00926960       0.01516999       0.07220998
C        2.51118922      -0.10599996       0.04019998
C        3.01659870      -1.51791942       0.15175994
C        3.28296876       0.99218959      -0.08230997
C        4.77410793       1.08342957      -0.11715996
O        5.15694809       1.57260942      -1.39279938
H        0.67331976       1.05465961      -0.00549000
H        0.61641979      -0.39131987       1.01003969
H        0.56617981      -0.54015976      -0.76105970
H        2.58466887      -2.13488936      -0.64354974
H        2.72467899      -1.94613934       1.11635959
H        4.10190821      -1.60096943       0.06840998
H        2.79401898       1.96328926      -0.15886994
H        5.28474808       0.13488995       0.05795998
H        5.12077856       1.79231930       0.64114976
H        4.73265791       0.99337959      -2.04883933
