19
Properties=species:S:1:pos:R:3 pbc="F F F"
C        3.15710902      -1.19360948      -0.41156986
C        2.47560906       0.07565998       0.09049996
N        1.89107919      -0.14205995       1.41412950
C        3.45392871       1.21496964       0.19757992
N        3.65083861       2.14084911      -0.92396963
C        2.96404886       2.64233899       0.26326990
C        3.65132880       3.63085866       1.13819957
H        3.59277844      -1.02927959      -1.40290940
H        2.44270921      -2.02007937      -0.49036983
H        3.96861839      -1.50716949       0.25491992
H        1.66335940       0.33591986      -0.59888977
H        2.61810899      -0.44600981       2.06068921
H        1.22690952      -0.91391969       1.36406946
H        4.34872866       0.95917964       0.75445974
H        2.97845888       1.96910930      -1.67367935
H        1.90121925       2.83383894       0.17611994
H        4.73103809       3.45361853       1.19947946
H        3.24217892       3.58245873       2.15199900
H        3.49519873       4.64555836       0.75728971
