21
Properties=species:S:1:pos:R:3 pbc="F F F"
C        0.94165963       0.03148999      -0.01090000
C        2.46890903      -0.17640993       0.00703000
C        2.83579898      -0.98199964       1.26613951
C        2.86834884      -0.98009968      -1.24338949
C        3.14981890       1.21957958       0.01146000
C        4.65538836       1.20657957       0.02482999
C        5.41832781       1.67506945      -0.97005963
H        0.62856978       0.58883977      -0.90068966
H        0.60898978       0.59239984       0.86949962
H        0.41012985      -0.92667967      -0.01526999
H        2.59731913      -0.42102984       2.17634940
H        3.90156841      -1.23108947       1.29301953
H        2.28172922      -1.92682922       1.30362952
H        2.63717914      -0.42507982      -2.15920925
H        2.32875919      -1.93297923      -1.28742957
H        3.93851852      -1.21176958      -1.25131953
H        2.81857896       1.78182936       0.89457965
H        2.79625893       1.79257929      -0.85663962
H        5.14026785       0.80922967       0.91429967
H        4.98617840       2.09103918      -1.87465930
H        6.50232792       1.64890933      -0.89844966
