13
Properties=species:S:1:pos:R:3 pbc="F F F"
N        1.02187955      -0.07342997      -0.09783997
C        2.48302913      -0.01013000      -0.02155999
C        3.28711891      -0.71064973      -1.07589960
C        3.24970865       0.79443967      -1.04356956
C        4.42576838       1.50219941      -0.62738979
C        5.41029835       2.09688926      -0.28438988
H        0.60437977       0.69380975       0.42911986
H        0.67764974      -0.93076968       0.33400989
H        2.88342905      -0.03861998       0.99025965
H        2.76186895      -1.20560944      -1.88453937
H        4.19378853      -1.21746957      -0.76661974
H        2.66876888       1.27904952      -1.82306921
H        6.28579760       2.62514901       0.01716999
