16
Properties=species:S:1:pos:R:3 pbc="F F F"
C        0.97182965      -0.01485999       0.02003999
C        2.48691916       0.00877000       0.02217999
C        3.15926886       1.04815960       0.95257968
C        4.23948812      -0.01135000       1.24644959
C        3.19734883      -1.08954966       0.86513966
O        3.68781853      -2.23273897       0.14315996
H        0.60179979      -0.87670970      -0.54419982
H        0.57368976       0.89051968      -0.44882986
H        0.56658977      -0.07612997       1.03539968
H        2.87294888       0.06351998      -1.00599968
H        2.56586909       1.32137942       1.83323932
H        3.51293874       1.96077931       0.46663982
H        5.10391808       0.03607999       0.57417977
H        4.59477806      -0.04102999       2.27977920
H        2.60830903      -1.41995943       1.73055935
H        4.20529842      -1.87284935      -0.59703982
