17
Properties=species:S:1:pos:R:3 pbc="F F F"
C        0.98240966       0.05940998      -0.16075994
C        2.49861908      -0.00935000      -0.00224000
C        2.95334888      -1.30440950       0.69851977
C        3.36653876      -0.86031967       2.07627916
C        3.59058857      -1.64834940       3.13212895
C        3.45765877       0.57382983       2.07023931
C        2.99720883       1.06982958       0.91830969
H        0.62758976      -0.75001973      -0.80657971
H        0.67961973       1.00947964      -0.61289978
H        0.46927983      -0.03150999       0.80331975
H        2.97423887       0.07590997      -0.98563963
H        3.82276869      -1.72021925       0.17389993
H        2.16979933      -2.06832910       0.72369975
H        3.48761868      -2.72591901       3.05466866
H        3.87243843      -1.24055958       4.09634829
H        3.82856846       1.16309953       2.89678884
H        2.95159912       2.12375927       0.68140972
