17
Properties=species:S:1:pos:R:3 pbc="F F F"
C        0.79084969       0.07533997       0.19291992
C        2.12950921       0.09946996       0.23030992
C        3.01561904       1.31033945       0.11312996
C        2.35823894       2.67921901       0.09495997
C        3.52451873       3.58585858       0.42357984
O        4.36811876       2.85739899       1.32519948
C        3.98449850       1.47246945       1.28204942
H        0.25399992      -0.86540967       0.27927989
H        0.19232993       0.97207963       0.07227997
H        2.64994907      -0.85192972       0.33881989
H        3.60385871       1.20308959      -0.80888969
H        1.60094941       2.76358891       0.88420969
H        1.88902926       2.92965889      -0.86090964
H        4.11145878       3.81875849      -0.47143984
H        3.21028876       4.52417850       0.88907969
H        4.88127804       0.85568970       1.16634953
H        3.51904869       1.22777963       2.24372911
