13
Properties=species:S:1:pos:R:3 pbc="F F F"
C        0.96017963      -0.06851997      -0.00384000
C        2.42428899       0.10487996      -0.00456000
C        3.26064873       1.19459951      -0.00110000
O        2.83789897       2.46693897       0.00437000
C        4.58502817       0.71613973      -0.00438000
C        4.47815800      -0.65652972      -0.00979000
O        3.17278886      -1.03825963      -0.00998000
H        0.44613984       0.89746970       0.00854000
H        0.64251971      -0.63372976       0.87758964
H        0.63937980      -0.61284971      -0.89720964
H        3.60026884       3.07119870       0.00596000
H        5.50526810       1.28040957      -0.00309000
H        5.19678783      -1.46367943      -0.01379000
