13

C    1.03449600   0.03889000   0.21926100
C    2.34043000  -0.10932100  -0.28254100
O    2.67502500  -1.22383100  -0.83504800
C    4.08945200  -1.26337600  -1.20116800
C    4.57554000   0.13401800  -0.92166100
O    3.84636800   1.08440700  -1.64198300
C    3.45274300   0.87367300  -0.30065200
H    0.73584500   0.97364000   0.69819700
H    0.32059100  -0.78383900   0.12544000
H    4.55078000  -2.04191300  -0.57827500
H    4.12989600  -1.55119400  -2.26081300
H    5.62364200   0.34785900  -0.69243800
H    3.52159700   1.70334800   0.40704500