19
Properties=species:S:1:pos:R:3 pbc="F F F"
C        1.90346932      -0.97113961      -0.07973997
N        3.25543880      -0.62977976       0.35395986
C        3.68383861       0.49214983      -0.09669996
N        4.92423820       0.96572965       0.18879993
C        5.35894775       2.32833910      -0.03659999
C        4.92417812       3.21147871       1.12746954
C        6.87645721       2.34453917      -0.19329992
H        1.84008932      -2.05254936      -0.23408993
H        1.61449945      -0.49037981      -1.02126956
H        1.18159950      -0.69644976       0.69483972
H        3.08997869       1.16183960      -0.74524975
H        5.42461777       0.42027983       0.88329965
H        4.91404819       2.71017909      -0.96240968
H        5.34036827       2.85622883       2.07758927
H        3.83283877       3.21772885       1.22798955
H        5.25361824       4.24505854       0.97709966
H        7.37721729       1.98298919       0.71246976
H        7.23689747       3.35798883      -0.39968985
H        7.18855715       1.69873929      -1.02209961
