19
Properties=species:S:1:pos:R:3 pbc="F F F"
C        2.09640932      -0.29141989      -1.51731944
C        2.48174906       0.14725994      -0.11461996
C        3.23259878       1.47489941      -0.08915997
C        2.43457913       2.66558909      -0.59640980
C        3.10067892       3.80764842       0.12898995
C        3.38858891       3.19464874       1.48144948
O        3.59492874       1.79097927       1.26854944
H        1.61009943      -1.27156949      -1.48536944
H        2.97943902      -0.37206987      -2.15905905
H        1.39783955       0.41346985      -1.97821927
H        3.10701895      -0.62581974       0.34917989
H        1.58409941       0.21338992       0.51264983
H        4.16938877       1.38339949      -0.65335977
H        1.38480949       2.59538913      -0.28682989
H        2.46661901       2.76910901      -1.68449938
H        4.04037857       4.06876850      -0.37263986
H        2.48450923       4.70927811       0.19038993
H        4.27078819       3.62885857       1.95992935
H        2.53405905       3.30641866       2.15707922
