17
Properties=species:S:1:pos:R:3 pbc="F F F"
C        1.32614958      -0.16222994       0.18516994
N        2.56310916       0.16476993       0.35522985
N        2.86783886       1.35945952      -0.20920992
C        2.73313904       2.54523897       0.65284973
C        3.37537885       3.65300846      -0.16362993
C        4.41552830       2.95246887      -1.02535963
C        4.23684835       1.47008955      -0.73882973
H        0.95312959      -1.11222970       0.59918982
H        0.59792978       0.46004981      -0.36522985
H        3.27303886       2.40384912       1.59750938
H        1.68664944       2.76988888       0.88121969
H        2.63058901       4.13975859      -0.80523974
H        3.82201838       4.42234802       0.47455981
H        4.23506832       3.17381883      -2.08288932
H        5.42964792       3.28317881      -0.78061968
H        4.37052822       0.86575967      -1.64225936
H        4.97066784       1.13913953       0.00800000
