19
Properties=species:S:1:pos:R:3 pbc="F F F"
C        0.87780970      -0.47005984       0.44031984
C        2.34425902      -0.36101985       0.01535999
C        2.74664903      -1.60826933      -0.77338970
C        2.55934906       0.93573964      -0.78562975
C        4.01859856       1.18858945      -1.15880966
C        4.21659851       2.51462913      -1.85516930
O        3.31902862       3.30797887      -2.11693907
H        0.58395976       0.39119986       1.04946959
H        0.71107972      -1.37245953       1.03823960
H        0.21398991      -0.51270980      -0.42982984
H        2.95609879      -0.31842989       0.92512965
H        2.21999907      -1.65870941      -1.73233938
H        2.51023912      -2.51750898      -0.20988992
H        3.82231855      -1.62336934      -0.97278965
H        2.19377899       1.78391933      -0.19207993
H        1.94815922       0.91612965      -1.69798946
H        4.39002848       0.41508985      -1.83862925
H        4.64747810       1.19117951      -0.26182991
H        5.25991774       2.74032879      -2.13409925
