14
Properties=species:S:1:pos:R:3 pbc="F F F"
C        0.89767969      -0.09053996      -0.10144997
C        2.41429925       0.03600999       0.02916999
N        3.07921886      -0.70592976      -1.03771961
C        2.84106874       1.47296953      -0.03852998
C        3.43126869       2.13592911       0.96669960
H        0.39130986       0.44769984       0.70782977
H        0.58664984      -1.13986969      -0.04611998
H        0.53437984       0.31795987      -1.05189955
H        2.71909904      -0.40161982       0.98759961
H        2.71206903      -0.40802982      -1.93951929
H        2.84244895      -1.69297934      -0.95479965
H        2.65640903       2.00332928      -0.96989959
H        3.64903855       1.65612948       1.91510928
H        3.72119856       3.17523861       0.85009968
