15
Properties=species:S:1:pos:R:3 pbc="F F F"
O        1.55026937      -0.27474988      -0.78910971
C        2.77546906       0.05284998      -0.13746995
C        3.55049872      -1.05367959       0.51575983
C        4.04306841      -0.44345984      -0.75984973
O        5.01654816       0.62808979      -0.67730969
C        4.28598833       1.85354924      -0.48509982
C        2.99465895       1.47715950       0.24305990
H        0.80771971      -0.28017989      -0.16077994
H        3.14950871      -2.05861926       0.46423981
H        4.10490847      -0.84447968       1.42235959
H        3.98001838      -1.01812959      -1.67561936
H        4.89122820       2.56376910       0.08467997
H        4.07223845       2.27599931      -1.47252941
H        3.13140869       1.55784941       1.32801950
H        2.17083907       2.13899922      -0.04226999
