14
Properties=species:S:1:pos:R:3 pbc="F F F"
C        0.79123968       0.11250996       0.04606998
C        2.27465916      -0.02067999       0.17724994
C        3.14529872       0.94647968      -0.15130994
C        4.63352823       0.81207973      -0.03033999
C        5.13603830       1.82660937       0.96646959
O        5.84006786       2.78717899       0.66258973
H        0.40774983      -0.65168977      -0.63676971
H        0.49586982       1.09378958      -0.33825988
H        0.31732988      -0.02867999       1.02216959
H        2.63538909      -0.97427964       0.55826980
H        2.77724886       1.89383924      -0.54410976
H        5.10391808       0.99692965      -1.00143969
H        4.93811846      -0.18197994       0.31246987
H        4.83677816       1.65662944       2.01499915
