19
Properties=species:S:1:pos:R:3 pbc="F F F"
C        2.18077922      -0.02478999       1.64269936
C        2.46283913       0.21238992       0.16776992
N        3.01751876       1.54383934      -0.05319998
C        2.08511925       2.66278887      -0.03250999
C        4.36677837       1.78214931       0.06339998
N        4.93088818       2.93817902       0.07095998
C        6.38216782       2.86782885       0.19980992
H        1.79521930      -1.03710961       1.79672933
H        1.43622947       0.68230975       2.02129912
H        3.08906889       0.09054996       2.24324918
H        1.53968942       0.08798997      -0.41064987
H        3.15913868      -0.55165976      -0.20003992
H        1.08531964       2.35368919      -0.35509986
H        2.41138911       3.45751858      -0.71112972
H        2.00728917       3.07407880       0.97860962
H        4.95545816       0.84987968       0.14977995
H        6.77945757       3.87875843       0.33490989
H        6.83638763       2.44836903      -0.70441973
H        6.68535709       2.27504921       1.07025969
