13
Properties=species:S:1:pos:R:3 pbc="F F F"
C        0.92138970       0.10617996      -0.04282998
C        2.42084932      -0.00648000      -0.00815000
C        3.09749889      -1.16632962       0.05645998
C        2.46096921      -2.49861908       0.06134998
O        3.13088894      -3.52092862       0.14557995
C        3.18208861       1.20366955      -0.02922999
C        3.81922841       2.22123933      -0.04623998
H        0.59369975       1.11956954       0.21565992
H        0.44970983      -0.56794977       0.67927974
H        0.54491979      -0.12167995      -1.04529965
H        4.18297815      -1.19185960       0.09369996
H        1.36412954      -2.53072906      -0.02216999
H        4.38585854       3.12311888      -0.06143998
