13
Properties=species:S:1:pos:R:3 pbc="F F F"
C        0.85773969      -0.04622998      -0.08678997
C        2.31221914      -0.30580989       0.14527994
C        2.79585886      -1.55347943       0.28078991
C        3.29282880       0.82256967       0.24588990
O        4.48764849       0.64491975       0.47190982
C        2.85834908       2.26455927       0.08007997
O        1.72161937       2.60645914      -0.19756992
H        0.44195986       0.57984978       0.70887977
H        0.27714992      -0.97581965      -0.09653996
H        0.69896972       0.43921983      -1.05474961
H        2.14803934      -2.42290902       0.22314993
H        3.85208845      -1.74754930       0.45291981
H        3.67760849       2.98595905       0.23113991
