19
Properties=species:S:1:pos:R:3 pbc="F F F"
C        1.00152969       0.01566000      -0.05963998
C        2.51730919      -0.01395999       0.05262998
C        3.07429886       1.12289965       0.90962964
C        4.48980856       0.66280973       1.23330951
C        4.32653856      -0.82360965       1.37667954
C        5.17132807      -1.62508941       2.03689909
C        3.04065871      -1.28078961       0.73872972
H        0.64256978      -0.82211965      -0.66647971
H        0.66669977       0.94558966      -0.53086978
H        0.52490979      -0.05270998       0.92495966
H        2.94712901       0.05430998      -0.95572966
H        2.49289918       1.24215961       1.83274937
H        3.06739879       2.08137918       0.38052985
H        5.16184807       0.88377964       0.39548987
H        4.87263823       1.14306962       2.13838911
H        4.98100805      -2.68996906       2.13096929
H        6.07067776      -1.23404956       2.50408912
H        3.20616865      -2.07848930       0.00829000
H        2.34763908      -1.63411927       1.50845945
