19

C    1.41117600  -0.20496100  -0.43409500
C    2.69803400   0.06607900   0.24052000
C    3.64212100  -1.03113000   0.59775700
C    4.26227500  -0.54850600  -0.65745300
C    5.14381100   0.64651800  -0.63788900
C    4.20827600   1.86469000  -0.41736600
C    3.10725700   1.46149600   0.59210600
H    1.18279100   0.55373000  -1.19854900
H    0.62209500  -0.10989300   0.33751000
H    1.34377100  -1.21463700  -0.85820200
H    3.21204600  -2.03725400   0.54434000
H    4.23717900  -0.84058200   1.49959100
H    4.00086800  -1.04152100  -1.60002000
H    5.85717000   0.57049100   0.19986800
H    5.71122500   0.74658000  -1.57131900
H    4.77326900   2.73651800  -0.06080800
H    3.73858100   2.13542800  -1.37411200
H    3.51056300   1.48450800   1.61776000
H    2.25389700   2.15013300   0.54115000