6
Properties=species:S:1:pos:R:3 pbc="F F F"
O        0.95621967      -0.01747999       0.00000000
C        2.17866921      -0.01634999       0.00000000
C        2.91929889       1.22104955       0.00000000
C        3.53531861       2.25213933       0.00000000
H        2.78474903      -0.93578964       0.00000000
H        4.07155848       3.17311883       0.00000000
