15

C    0.93827400  -0.00103200  -0.00176300
C    2.43859200  -0.01190400   0.05558300
C    3.18693600  -1.17358800   0.14261800
C    3.14541400   1.18609300   0.02173300
C    3.76825900   2.25641600  -0.00873700
C    4.48649800   3.44694300  -0.04193800
C    3.85578900   4.65576900  -0.12689800
H    0.52837800   0.57349800   0.84243000
H    0.53512500  -1.02025900   0.03473700
H    0.59534300   0.48366400  -0.92815900
H    2.69587600  -2.15038300   0.17358100
H    4.27859200  -1.14342400   0.18230000
H    5.57911100   3.38740200   0.00224500
H    2.76583000   4.72897100  -0.17169500
H    4.43380700   5.58304700  -0.15204700