17
Properties=species:S:1:pos:R:3 pbc="F F F"
C        1.09835958       0.94942963       1.42721939
C        2.55903888       0.81458974       1.13744950
C        3.15829897       1.33730948       0.05755998
C        4.62087822       1.18357956      -0.26169989
C        5.36460781       2.48270893      -0.31861988
C        6.26634741       2.92672896       0.80296969
O        6.79116726       2.33749914      -0.39588988
H        0.63921976      -0.04166998       1.49249947
H        0.57364976       1.51686943       0.65218979
H        0.95250964       1.46066952       2.38329911
H        3.14108896       0.24609990       1.86044919
H        2.56761885       1.89612925      -0.66656977
H        4.70121813       0.69633973      -1.24059951
H        5.09769821       0.50630981       0.45772982
H        4.90776825       3.22392869      -0.96103960
H        6.30936766       2.33643913       1.70977938
H        6.42441750       3.98866844       0.94590968
