15
Properties=species:S:1:pos:R:3 pbc="F F F"
C        1.19920945      -0.51528978      -0.24803992
C        2.49532914      -0.23956990      -0.06481998
C        3.02439880       1.10226965      -0.09354996
C        4.32801867       1.37013948       0.07582997
C        4.90914822       2.75198913       0.04741998
C        5.52570772       3.04444885       1.39317942
O        6.72818756       2.94524884       1.62442946
H        0.84610969      -1.54159939      -0.21924992
H        0.46124980       0.25910991      -0.43217984
H        3.18894887      -1.05953956       0.11314996
H        2.31881905       1.91304934      -0.26509988
H        5.03712797       0.55871975       0.23639992
H        4.15886831       3.52205873      -0.16112994
H        5.68284750       2.81616902      -0.72271973
H        4.81739855       3.32107878       2.19270921
