12

C    0.88489100   0.10377000  -0.00748000
C    2.35540300   0.03450700   0.00073900
C    3.27110200   1.12886800   0.00403200
C    4.58738100   0.72574900   0.01039800
C    4.70747400  -0.68705500   0.01212900
S    3.20031300  -1.49188400   0.00586700
H    0.53576100   1.14292700   0.00010400
H    0.46823800  -0.42814700   0.86600900
H    0.48093400  -0.40949500  -0.89824500
H    2.93122000   2.16556100   0.00169600
H    5.45162200   1.39084300   0.01384400
H    5.63968600  -1.25791400   0.01691700