15
Properties=species:S:1:pos:R:3 pbc="F F F"
C        2.82642889      -1.63857937      -0.21486993
C        3.64973855      -0.68922973       0.24422991
C        3.41711855       0.72045976       0.03647999
C        4.25585842       1.67054939       0.47421983
N        4.09945869       3.02701879       0.33169988
C        4.92340851       4.04795837       0.71126974
N        6.10165739       4.00690842       1.22218955
H        3.04033875      -2.68730903      -0.03206999
H        1.92927933      -1.40634954      -0.77965969
H        4.53561831      -0.98478961       0.80337971
H        2.51552892       1.00156963      -0.50171983
H        5.15929842       1.38988960       1.00941956
H        3.23003864       3.30267882      -0.11502996
H        4.46471834       5.03504848       0.52704978
H        6.40309763       3.03615880       1.31901956
