15
Properties=species:S:1:pos:R:3 pbc="F F F"
C        2.01460934      -0.83323973       0.11228996
C        3.42423868      -0.27036989       0.06610998
C        3.43397856       1.24087954       0.04552998
O        2.43543911       1.94962931       0.06220998
C        4.80570841       1.89828932       0.00257000
C        4.82848835       3.39808893       0.00291000
O        5.81204796       1.20158958      -0.03099999
H        2.04115915      -1.92716932       0.13298994
H        1.43782949      -0.52135980      -0.76491970
H        1.48135948      -0.48677981       1.00393963
H        3.93026853      -0.63366979      -0.83436972
H        3.97853851      -0.60893977       0.94761962
H        4.31855822       3.77722859      -0.88624966
H        5.86548758       3.74584842      -0.01366000
H        4.34899855       3.77663851       0.90916967
