19
Properties=species:S:1:pos:R:3 pbc="F F F"
C        1.11442959       0.03910999      -0.37229985
C        2.59595895       0.15730995      -0.69086975
C        3.42751884       0.36305988       0.57543981
C        4.88950825       0.51932979       0.26273990
O        5.24593830       1.78161931      -0.31690991
C        5.92741776      -0.09253997       1.16364956
C        5.69874763      -0.65630978      -0.21061993
H        0.54345977      -0.14591995      -1.28773952
H        0.73730975       0.96038961       0.08300997
H        0.92524964      -0.78873968       0.31887987
H        2.75248885       0.99008965      -1.38594949
H        2.92438889      -0.75172973      -1.20825958
H        3.27141881      -0.48531982       1.25345957
H        3.08129883       1.25747943       1.10804951
H        5.23648787       2.48844910       0.35113987
H        5.60174799      -0.68519974       2.01020932
H        6.84802723       0.45277983       1.33478951
H        6.45064735      -0.47502983      -0.97037959
H        5.21337795      -1.62149942      -0.29097989
