22
Properties=species:S:1:pos:R:3 pbc="F F F"
C        0.92452961       1.72820938       1.03026962
N        2.36756921       1.89967930       1.13465965
C        3.05716896       1.25859952       0.01177000
C        4.60108852       1.43109953       0.05237998
C        5.20463800       0.77773970       1.30869961
C        5.19670773       0.74120969      -1.19032955
C        4.98770809       2.92057896       0.01982999
H        0.43681982       2.22255921       1.87625933
H        0.64346975       0.67007971       1.05119956
H        0.53579980       2.18460917       0.11409996
H        2.68689895       1.49156940       2.01195931
H        2.68105912       1.68399942      -0.92788965
H        2.81653905       0.18744992       0.00049000
H        4.88797808       1.28667951       2.22487926
H        6.29968786       0.81265968       1.28214955
H        4.90780830      -0.27386990       1.38698947
H        4.80633831       1.18331957      -2.11374927
H        4.95502806      -0.32742986      -1.20290959
H        6.28812790       0.83579969      -1.21254945
H        4.56420803       3.41870880      -0.85928971
H        6.07591772       3.04371881      -0.02056999
H        4.63211823       3.45058870       0.90980965
