12
Properties=species:S:1:pos:R:3 pbc="F F F"
N        0.99999964       0.00000000       0.00000000
C        2.15100908       0.00000000       0.00000000
C        3.59500861       0.00000000       0.00000000
C        4.16388845       1.16556954      -0.77260971
C        4.92737818       0.71965975      -1.78375936
C        4.92627859      -0.72238970      -1.78175938
C        4.16349840      -1.16592956      -0.77109975
H        3.99123859       0.00044000       1.02130961
H        3.98357868       2.20406914      -0.53547978
H        5.46069765       1.32586944      -2.50062895
H        5.45965815      -1.33118951      -2.49865913
H        3.98281860      -2.20509911      -0.53270978
