13
Properties=species:S:1:pos:R:3 pbc="F F F"
C        0.99935961       0.00416000      -0.01126000
N        2.46130896       0.01111000      -0.01431999
C        2.97332883      -0.71238977      -1.17697966
C        2.96585894       1.38321960      -0.00343000
H        0.61375976       0.50970984       0.88149965
H        0.61918974      -1.02328968       0.02195999
H        0.57969981       0.49840981      -0.89541972
H        2.63048911      -1.75334942      -1.16436958
H        4.06878853      -0.74326974      -1.15964949
H        2.65640903      -0.25667989      -2.12250924
H        2.61557913       1.91535926       0.88843966
H        2.65053916       1.94885933      -0.88817966
H        4.06110859       1.39036953       0.03767999
