11
Properties=species:S:1:pos:R:3 pbc="F F F"
C        1.00179970      -0.06377997       0.02998999
O        2.42108917      -0.00822000       0.02888999
C        2.89400887       1.33854949       0.00000000
C        4.33800840       1.33854949       0.00000000
C        5.52816820       1.33854949       0.00000000
H        0.69998974      -1.11335957       0.05270998
H        0.59930974       0.39602986      -0.87671965
H        0.59929979       0.43465984       0.91657966
H        2.51442909       1.87433934       0.87740970
H        2.51442909       1.83618939      -0.89958966
H        6.59349775       1.32737947       0.00024000
