11
Properties=species:S:1:pos:R:3 pbc="F F F"
C        1.04696953       0.01373999      -0.10669996
C        2.37245917      -0.06199998       0.02661999
C        3.17393899      -1.22386956       0.17182994
C        4.41524839      -0.76244968       0.26588991
O        4.57198811       0.62322974       0.20094994
C        3.28826880       1.11390948       0.04766998
O        2.97515893       2.28661919      -0.05065998
H        0.55475980       0.97723961      -0.21032992
H        0.42216986      -0.87243968      -0.11619996
H        2.84734893      -2.24903917       0.19937992
H        5.33635807      -1.30763948       0.38706985
