15
Properties=species:S:1:pos:R:3 pbc="F F F"
C        2.36449909      -1.06970954       0.62963974
C        2.18439913       0.13727996       0.08082997
C        3.24183869       1.20267951       0.11338995
N        2.96747899       2.34408903      -0.45752981
N        4.45874834       0.94109964       0.73967969
C        5.66672802       1.52556944       0.13603996
C        5.12616825       2.06429911       1.41704953
H        1.57941949      -1.81783926       0.58699977
H        3.28723860      -1.34506941       1.13038957
H        1.24977958       0.37837988      -0.41247985
H        2.02739930       2.33813906      -0.85849965
H        5.50836754       2.08024931      -0.77865970
H        6.51382732       0.85680968       0.16636993
H        5.59530783       1.77341926       2.34501910
H        4.58700848       3.00136876       1.40948951
