17
Properties=species:S:1:pos:R:3 pbc="F F F"
C        1.07135952       0.00370000      -0.02910999
C        2.58668923       0.01815999      -0.02237999
O        3.06662869       1.06691968       0.82423967
C        4.37361860       0.63293982       1.21035945
O        4.53480816      -0.76236969       0.93494964
C        3.22176886      -1.21534944       0.58863974
C        3.31406879      -2.39992929      -0.35191989
H        0.68088973      -0.80290967      -0.65578979
H        0.68481970       0.95720965      -0.40607986
H        0.67410976      -0.11356995       0.98479962
H        2.96971893       0.20971993      -1.03249955
H        5.12495804       1.19441950       0.64592975
H        4.51486826       0.81660968       2.27905917
H        2.71892881      -1.50626934       1.51917946
H        3.90124846      -2.14907908      -1.24320948
H        2.32422900      -2.74196911      -0.66719973
H        3.83200860      -3.23242879       0.13622995
