18

C    1.01060500  -0.62282200  -0.02632900
C    2.41731300  -0.06256100  -0.08061800
N    3.22431600  -0.72414000  -1.17240800
C    2.51480500   1.44329000  -0.34016900
C    3.94544900   1.86527200  -0.53678300
N    4.20178600   3.00257500  -1.25475100
H    0.46239300  -0.13878600   0.79313800
H    1.00445800  -1.70542400   0.16590200
H    0.46040100  -0.42034600  -0.95871700
H    2.96016600  -0.30076000   0.84729200
H    2.69668600  -0.78275700  -2.05152500
H    3.55520000  -1.66456400  -0.93484200
H    2.03356700   1.96068000   0.50982700
H    1.91177000   1.70101300  -1.23035500
H    4.03480100  -0.06635000  -1.32479100
H    4.63659500   1.69453900   0.29827900
H    3.58824000   3.29228600  -2.00628300
H    5.14038900   3.37908100  -1.28579300