12
Properties=species:S:1:pos:R:3 pbc="F F F"
O        1.14516962       0.02593999      -0.46882981
C        2.32127905       0.00345000      -0.14342995
C        3.14943886      -1.23410952       0.04091999
C        4.48875809      -0.67329973       0.50464982
C        4.32136822       0.81237966       0.45998982
C        3.10261869       1.22285950       0.10284996
H        3.24441886      -1.76247931      -0.91158962
H        2.70159912      -1.88492930       0.79607970
H        5.30172825      -0.99784964      -0.15322994
H        4.72217798      -1.00282955       1.52307940
H        5.12817812       1.49036944       0.70770973
H        2.71688914       2.22143912      -0.00103000
