20
Properties=species:S:1:pos:R:3 pbc="F F F"
C        2.47961926      -1.12633967       0.45630983
N        2.31102920       0.10500996       1.21239960
C        2.90426898       1.28325951       0.55709982
C        2.41432905       2.51256919       1.33331954
C        4.45083809       1.23014963       0.50399983
C        5.06972837       2.40580893      -0.20435992
C        5.97160769       3.22729874       0.34903985
H        1.88929927      -1.92006934       0.92535967
H        3.52140856      -1.46008945       0.44285986
H        2.12238932      -1.01888955      -0.57285976
H        2.70282888      -0.00823000       2.14676929
H        2.50608897       1.36024940      -0.46318984
H        2.80853915       2.52540898       2.35597920
H        1.31968951       2.52754903       1.39332950
H        2.71952891       3.44180870       0.84105968
H        4.77348804       0.33356988      -0.03822998
H        4.85224819       1.14101958       1.52193940
H        4.76226807       2.57705903      -1.23416948
H        6.31575775       3.09364891       1.37011957
H        6.38773775       4.05638838      -0.21503992
