16
Properties=species:S:1:pos:R:3 pbc="F F F"
C        0.89358968       0.04694998      -0.35034987
C        1.92495930       0.27621990       0.47130981
C        2.91736913       1.32743943       0.14307995
C        2.43006921       2.79398894       0.28922987
C        3.83854842       3.13031888       0.82093972
C        3.94005847       1.65581942       1.26360953
H        0.16498993      -0.72386974      -0.12162995
H        0.74860972       0.61765975      -1.26299942
H        2.04930925      -0.31255990       1.37546945
H        3.41045856       1.13672960      -0.82069969
H        1.63623941       2.94927883       1.02953959
H        2.14959908       3.29566884      -0.64097977
H        4.55309820       3.40685868       0.03681998
H        3.88083863       3.87278843       1.62167943
H        4.92817783       1.20105958       1.15318954
H        3.58391881       1.48501945       2.28646922
