17

C   -1.52864900   0.71553900   0.27463400
C   -1.53614000  -0.71469100  -0.24934500
C   -0.41470800  -1.58316100   0.32227100
C    0.98963600  -1.20881200   0.09036500
O    1.49599400  -0.00696200  -0.01011600
C    0.99408700   1.19733200  -0.10305900
C   -0.41173600   1.57848200  -0.31395700
H   -2.47810200   1.20484400   0.01777100
H   -1.46855300   0.72281900   1.37540200
H   -1.49276300  -0.72220300  -1.35089600
H   -2.48399800  -1.19931500   0.02188000
H   -0.51593800  -1.63243800   1.42986800
H   -0.50996500  -2.62970200  -0.00707600
H    1.78880000  -1.95546200   0.09924400
H    1.79663500   1.94010300  -0.12395300
H   -0.49694800   2.62552600   0.01653200
H   -0.52934800   1.62806000  -1.41992400