15
Properties=species:S:1:pos:R:3 pbc="F F F"
C        0.72602969       0.37820986       0.22666991
C        2.05156922       0.02282999      -0.36660984
C        3.22797871       0.42679983       0.13819996
C        4.53051853       0.09668996      -0.40966985
C        4.79682827       0.03528998      -1.72441936
C        5.67348766      -0.11091996       0.53665978
O        6.82999754      -0.31384987       0.18728992
H        0.17737994      -0.53266978       0.48378980
H        0.13369994       0.94414967      -0.49854979
H        0.82633972       0.98319960       1.13298953
H        2.01848912      -0.60453975      -1.25500953
H        3.23761868       1.04063964       1.03808963
H        4.03501844       0.21357991      -2.47558904
H        5.79590797      -0.18910994      -2.09033918
H        5.40136814      -0.06505997       1.60502946
