17
Properties=species:S:1:pos:R:3 pbc="F F F"
C        2.21432924      -0.02662999      -0.42426986
C        2.19272923       1.29808950      -0.22572991
O        3.23736882       2.16062903      -0.05434998
C        4.55586815       1.62017941      -0.14288995
C        5.53499794       2.74185896       0.03859998
C        6.21922779       2.96527886       1.36339939
C        7.00638723       2.44617891       0.19183993
H        1.28084946      -0.56884980      -0.54171979
H        3.12763882      -0.60516977      -0.47197983
H        1.26198947       1.85270941      -0.17417993
H        4.70950794       1.17754948      -1.13497961
H        4.70181799       0.85222965       0.62721974
H        5.26413774       3.61067867      -0.55083978
H        6.01290751       2.28239918       2.17899919
H        6.38774776       3.98846865       1.67795932
H        7.70756674       3.12093878      -0.28687990
H        7.33082724       1.41255951       0.21399991
