13
Properties=species:S:1:pos:R:3 pbc="F F F"
C        1.03112960       0.00641000      -0.06442998
C        2.52101922      -0.00252000      -0.01315999
C        3.30743885      -0.70904970      -1.08221960
C        3.32408857       0.80133969      -1.01196957
C        4.51780844       1.46915936      -0.57472980
N        5.48202801       2.00943923      -0.22342992
H        0.63504976       0.76713973       0.61642975
H        0.63731974      -0.96735966       0.24644990
H        0.65369976       0.22090992      -1.07016957
H        2.88333893      -0.08284996       1.00705957
H        2.77195907      -1.17054963      -1.90428925
H        4.19358826      -1.25646949      -0.77756971
H        2.77582884       1.32517946      -1.78795934
