17

C    1.03008900   0.09721800   0.05983400
C    2.52726000  -0.02437100  -0.08345600
O    3.20324200   1.06143300   0.60970200
C    4.31640200   0.58622700   1.17928500
O    4.41132600  -0.74499700   1.09117800
C    3.16859700  -1.27185400   0.54824800
C    3.43790300  -2.42542800  -0.38635800
H    0.55433200  -0.72699500  -0.49049500
H    0.67387700   1.04254500  -0.36871600
H    0.73020000   0.03994700   1.11560200
H    2.82964500   0.08924000  -1.14183600
H    5.23897900   1.08819500   0.75215100
H    4.39841300   0.93046700   2.25672300
H    2.59837000  -1.61057200   1.43399000
H    4.05050900  -2.10473800  -1.24059400
H    2.47791500  -2.80860300  -0.76068300
H    3.94766400  -3.24190800   0.14062400