19
Properties=species:S:1:pos:R:3 pbc="F F F"
C        2.27031922      -0.77701974      -0.88550967
O        1.95292926       0.48408982      -0.31396988
C        3.11413884       1.31387949      -0.11483996
C        3.37565875       2.39132905      -1.13990963
C        2.53409910       2.53016901      -2.36263919
C        2.80818915       2.75607896       0.20757991
C        3.64009881       3.49602866       1.19749951
H        1.34207940      -1.33143950      -1.04016960
H        2.91353893      -1.34767950      -0.20768993
H        2.76782894      -0.64490974      -1.85162926
H        3.97333860       0.87158966       0.38243985
H        4.41224813       2.63244891      -1.34692955
H        1.47144949       2.35761905      -2.16227913
H        2.85854888       1.81609941      -3.12630892
H        2.63815904       3.53880858      -2.77538896
H        1.76382935       3.04171896       0.27083990
H        4.69533825       3.21057868       1.14474964
H        3.28334880       3.29623890       2.21232915
H        3.56919861       4.57270813       1.01666963
