15
Properties=species:S:1:pos:R:3 pbc="F F F"
C        0.91669965       0.17234993       0.04466998
C        2.41964912       0.00940000      -0.10457996
O        2.69383907      -0.57857978      -1.37475955
C        3.13597870       1.32897949      -0.03612999
C        3.98171854       1.69635940       1.15418959
N        4.60370827       1.32113945      -0.11332995
H        0.66184974       0.62964976       1.00544965
H        0.41639987      -0.79903966      -0.02847999
H        0.50697982       0.79977971      -0.75476974
H        2.78678894      -0.68094975       0.66394973
H        3.66415858      -0.51993978      -1.46903944
H        2.64616895       2.10994911      -0.60613972
H        4.09030819       0.98402965       1.96249938
H        4.04946852       2.73816895       1.44004941
H        4.94058800       2.14934921      -0.61072975
