18
Properties=species:S:1:pos:R:3 pbc="F F F"
C        2.49291897      -0.42742985      -1.65427935
N        2.37406898       0.09187996      -0.29831991
C        3.21295857       1.26377952      -0.08010997
C        3.29095888       1.60233939       1.41951942
C        3.41015887       3.12422895       1.49441946
C        2.77165914       3.55534863       0.21652992
C        2.65058899       2.53306890      -0.63887972
H        1.85806930      -1.31297946      -1.75834930
H        3.52151871      -0.72605973      -1.88125920
H        2.15797901       0.29995990      -2.39982891
H        2.64352894      -0.63820976       0.35910988
H        4.22625828       1.10071957      -0.46953982
H        4.13021851       1.09876955       1.91157925
H        2.37775922       1.28949952       1.94582927
H        4.45484829       3.44981885       1.52859950
H        2.88350892       3.51826859       2.36832905
H        2.46637917       4.57138824       0.00925000
H        2.23899913       2.62092900      -1.63407934
