19
Properties=species:S:1:pos:R:3 pbc="F F F"
C        1.71997929      -0.53894979      -1.10707951
N        2.29772925       0.00030000       0.11869995
C        3.13580894       1.18957949      -0.13747995
C        4.38052845       0.92677969      -0.96552962
C        2.25990915       2.43089914      -0.45659983
N        3.02279878       3.19872880       0.56280982
C        3.37083888       1.91222930       1.22089946
H        1.01189959      -1.33256948      -0.84949970
H        2.48364925      -0.97894967      -1.75599933
H        1.16609955       0.21873991      -1.66950941
H        2.78065896      -0.74381971       0.61826974
H        5.02354813       1.81317925      -1.01551962
H        4.12901878       0.65886974      -1.99694920
H        4.97731781       0.11394996      -0.53682977
H        1.19382954       2.34961915      -0.20941992
H        2.34555912       2.82617903      -1.47397947
H        3.83320856       3.68089867       0.17465992
H        4.39012861       1.87133932       1.61886942
H        2.67919898       1.65606940       2.03387928
