16

C    3.43646000   0.39746900   2.60348400
O    3.28122100   1.74422900   2.17196800
C    2.96002600   1.97790500   0.90182800
C    2.25059800   3.28880200   0.69688800
C    4.50180500   2.13297400   0.03966500
O    5.23790400   1.03073300   0.16538700
H    3.84969900   0.43106900   3.61605900
H    4.11192200  -0.13829300   1.91362200
H    2.45530700  -0.10137200   2.60388600
H    2.53656900   1.10186000   0.37918500
H    2.75828500   4.10631900   1.22649100
H    1.23707000   3.18743100   1.11505500
H    2.16045600   3.52968000  -0.36982200
H    4.92422100   3.05546300   0.46179700
H    4.09407400   2.22841200  -0.97663900
H    5.93293300   1.12324800   0.83393900