17

C    1.01494400  -0.10040500  -1.27832400
O    1.69824200   1.14536600  -1.49484000
C    2.93358700   1.27232200  -1.13464700
C    3.56123700   2.60734400  -1.20269000
C    3.31093700   2.66377500   0.25160000
O    4.28653900   2.41230800   1.06210900
C    4.03202100   2.29228900   2.47155800
H    0.16398700  -0.10630600  -1.96591000
H    0.66034300  -0.13755700  -0.23932600
H    1.68448900  -0.94454600  -1.49347100
H    3.50957800   0.38796300  -0.83025600
H    2.97760000   3.32511400  -1.79141800
H    4.62873600   2.59428300  -1.45309800
H    2.33039800   2.95906600   0.64891800
H    4.99134800   2.45727000   2.97096100
H    3.66615000   1.27844600   2.68346300
H    3.30074500   3.04695700   2.79228300