11
Properties=species:S:1:pos:R:3 pbc="F F F"
C       -1.39767957      -0.07639997      -0.01784999
C       -0.75905967       1.15897954       0.00491000
C        0.62650979       1.18023956       0.04358998
N        1.39438951       0.06942997       0.06050998
C        0.74614972      -1.11577952       0.03767999
C       -0.63315976      -1.23765945      -0.00124000
H       -2.48241901      -0.13261995      -0.04829998
H       -1.32552958       2.08314919      -0.00715000
H        1.17115963       2.11956930       0.06253997
H        1.38572943      -1.99323916       0.05195998
H       -1.10130966      -2.21637917      -0.01821999
