19
Properties=species:S:1:pos:R:3 pbc="F F F"
N        2.19394922      -0.43211985      -1.40394938
C        2.37848902       0.04439998      -0.03775999
C        3.22484875       1.30878949      -0.02795999
C        2.57090902       2.60939884      -0.57229978
C        3.15991902       3.37462878       0.62879980
N        4.47000837       3.91608858       0.26608992
C        3.34425879       2.02251911       1.34588957
H        1.63135934      -1.28194952      -1.39177954
H        3.09533882      -0.69630975      -1.79966938
H        2.86629891      -0.73800969       0.55403978
H        1.39602947       0.23059991       0.40974987
H        4.21511841       1.12564969      -0.47098982
H        1.47359943       2.59015894      -0.56324983
H        2.89398909       2.91947889      -1.57135940
H        2.49406910       4.09171867       1.11485958
H        5.07351828       3.28450871      -0.25808990
H        5.01675844       4.23724842       1.06312966
H        4.28578854       1.86302936       1.88123930
H        2.52191901       1.79583931       2.03636932
