19
Properties=species:S:1:pos:R:3 pbc="F F F"
C        1.38782954       0.54728979      -0.58359975
C        2.38140917       1.08707952       0.38923988
C        3.60368848       1.51025939       0.05418998
O        4.47750807       1.98185933       0.99481964
C        5.52079821       2.80713892       0.45760983
C        5.89119768       3.82212853       1.53402948
C        6.72609758       1.94267929       0.10078996
H        1.12540948      -0.48114982      -0.31745988
H        1.77118933       0.54785979      -1.60888934
H        0.47626984       1.15227950      -0.56012982
H        2.07721925       1.13168955       1.43209946
H        3.98009849       1.48266947      -0.95979959
H        5.17151833       3.35812855      -0.42606986
H        6.21902752       3.32128882       2.45167899
H        5.01880836       4.42827845       1.80130935
H        6.68843746       4.48995829       1.19390953
H        7.07023716       1.37216949       0.97041965
H        7.55528688       2.55322909      -0.26937988
H        6.46572781       1.21134949      -0.67126971
