7
Properties=species:S:1:pos:R:3 pbc="F F F"
O        0.96666962      -0.00194000       0.00000000
C        2.19150901       0.01704999       0.00000000
C        2.92710900      -1.22963953       0.00000000
C        3.53360868      -2.26734900       0.00000000
C        2.92550898       1.26824951       0.00000000
N        3.53527856       2.26007915       0.00000000
H        4.06521845      -3.19201875       0.00000000
