17

N    0.71543800   1.32084000  -0.04882700
N    1.95920200   1.28834300  -0.43171200
C    3.07790800   1.38928900   0.16127700
C    4.37930300   1.31242000  -0.54520800
C    5.16322300   2.59245900  -0.30177900
C    5.90239400   2.79607000   0.99888000
C    6.66546900   2.54375900  -0.26590300
H    0.22642600   0.42383600   0.01706200
H    0.16502100   2.13332100  -0.33981500
H    3.06944400   1.58025800   1.24873700
H    4.22666300   1.10920600  -1.61446200
H    4.92486000   0.45774700  -0.10705600
H    4.71578700   3.47957000  -0.76041500
H    5.87582900   1.99286200   1.74190800
H    5.91653700   3.80023100   1.42732700
H    7.20563500   3.37420400  -0.72419400
H    7.14890800   1.57123200  -0.38973300