13
Properties=species:S:1:pos:R:3 pbc="F F F"
C        0.99999964       0.00000000       0.00000000
C        2.44399905       0.00000000       0.00000000
C        3.63415861       0.00000000       0.00000000
C        5.07815790       0.00000000       0.00000000
C        5.71405792       1.33473957      -0.33162987
O        5.02099800       2.11973929      -1.18936956
O        6.82174730       1.66136932       0.07500997
H        0.60610980       1.02092969       0.01068000
H        0.60587978      -0.51967978       0.87871963
H        0.60596979      -0.50105983      -0.88950962
H        5.46065807      -0.72884971      -0.72269976
H        5.43844795      -0.29419988       0.99250960
H        4.15937853       1.74828935      -1.46073949
