15
Properties=species:S:1:pos:R:3 pbc="F F F"
C        1.81681931      -0.63223976      -0.99487966
C        2.90524912      -0.27720991       0.00598000
C        3.05323887       1.21187949       0.14706995
C        4.17620850       1.87190926      -0.18148994
C        4.38781881       3.32301879      -0.01998999
O        3.27274895       4.06433868      -0.14782993
O        5.49604797       3.79916859       0.16469994
H        1.70855927      -1.71926939      -1.06596959
H        2.05839920      -0.25037992      -1.99267924
H        0.84939969      -0.21518992      -0.69522971
H        3.84851861      -0.73961973      -0.30746990
H        2.65306902      -0.69974971       0.98531961
H        2.20383930       1.72953939       0.58643979
H        5.05468845       1.34319961      -0.54001981
H        2.49963903       3.56025863      -0.45755982
