17
Properties=species:S:1:pos:R:3 pbc="F F F"
C        0.81203973       0.12091996      -0.58913976
C        2.18355918      -0.09097997      -0.01361000
C        3.16712880      -0.90881968      -0.83068973
O        3.21386886       0.52146983      -0.81047970
C        2.38150907       0.07463998       1.50153947
C        1.34366953       0.61985976       2.45374918
C        1.70391929      -0.83468968       2.50065899
H        0.80033970      -0.00819000      -1.67702937
H        0.45725983       1.13368952      -0.37345985
H        0.10356995      -0.59569979      -0.16211994
H        2.82758904      -1.38763952      -1.74034941
H        3.95116854      -1.44354939      -0.30927986
H        3.40771890       0.34590986       1.76240933
H        0.36473987       0.88839966       2.07601929
H        1.68906939       1.25732958       3.26040888
H        2.29016924      -1.18797958       3.34104896
H        0.97439963      -1.54922938       2.13787913
