18
Properties=species:S:1:pos:R:3 pbc="F F F"
C        0.97825968       0.01636999      -0.00950000
C        2.51999903       0.00000000       0.00000000
C        2.99296904      -0.72110975       1.27508950
C        3.00661874      -0.75582969      -1.27192950
N        4.46004820      -0.93539959      -1.36130953
C        3.00201893       1.36116946       0.00000000
C        3.39929867       2.48306894       0.00000000
H        0.59069979       0.52096981      -0.90210968
H        0.57887977       0.54616982       0.86315972
H        0.57130975      -1.00053966       0.00294000
H        2.59588909      -0.23653992       2.17512918
H        4.08512878      -0.71519971       1.36604953
H        2.66005898      -1.76481938       1.28502953
H        2.67406893      -0.22003992      -2.17047906
H        2.54648900      -1.75074935      -1.30704951
H        4.91184807      -0.02204999      -1.30287957
H        4.69668818      -1.31213951      -2.27793908
H        3.75427866       3.48796868       0.00568000
