15

O    2.24110000   0.03779800   1.71832500
C    2.64289700   0.01240000   0.60854300
C    2.93392300  -1.27079900  -0.22371200
C    3.93309300  -0.79206800  -1.24293800
C    5.13942500  -0.04801100  -0.73976600
C    3.95514900   0.71288400  -1.26948700
C    2.97094600   1.25629900  -0.26828100
H    1.93777500  -1.50129300  -0.64732400
H    3.23988700  -2.09155200   0.44140300
H    4.01597000  -1.39728800  -2.15107600
H    5.35482900  -0.03221000   0.33527100
H    6.03153400  -0.07216300  -1.36734200
H    4.05527200   1.28303000  -2.19834500
H    3.30112800   2.09073000   0.36759200
H    1.98176200   1.50077300  -0.70030100