15

C    2.77512200  -0.87098000  -0.93680100
N    2.60610900   0.03276500   0.15213700
C    2.98994300   1.37960500   0.09853800
C    2.53284300   2.20711100   1.28948000
C    4.59064100   1.48138000  -0.08561300
O    5.26207300   0.62610800  -0.54314100
H    2.24989300  -1.81363800  -0.74441100
H    3.86812600  -1.07234400  -1.04215200
H    2.44022700  -0.41243200  -1.87853100
H    2.42115300  -0.36193700   1.07709900
H    2.65752600   1.81761300  -0.86394500
H    2.92523800   1.80627000   2.23625500
H    1.43620500   2.23259300   1.33673500
H    2.88495400   3.24232800   1.18492700
H    4.97141000   2.47729200   0.24126300