15
Properties=species:S:1:pos:R:3 pbc="F F F"
C        0.94348967      -0.03743999       0.00726000
C        2.43611908      -0.00277000       0.00901000
C        3.13901877       1.13798952       0.00000000
C        4.54501867       1.13798952       0.00000000
C        5.73517752       1.13798952       0.00000000
C        7.17917728       1.13798952       0.00000000
O        7.67018700       2.47143912      -0.04144998
H        0.59450978      -1.07445955      -0.03805999
H        0.53936982       0.48830983      -0.86376965
H        0.54179984       0.41117984       0.92137963
H        2.95034885      -0.96108967       0.01839999
H        2.63022900       2.09780908      -0.00597000
H        7.57828712       0.60146981      -0.86609966
H        7.57640696       0.66171974       0.90100962
H        7.20324755       2.91677880      -0.76876968
