13

C    1.45379100   1.54089800  -1.40536800
C    2.42703400   1.30581900  -0.72597100
C    3.51817800   1.01557800   0.12249200
N    4.72774100   1.10871700  -0.28391800
N    5.82705700   0.87689700   0.37433800
C    7.01753100   0.21854900  -0.13691000
C    7.05502700   1.65106900   0.30500700
H    0.59044100   1.75221600  -2.01703900
H    3.32106800   0.70120200   1.15983200
H    7.00177400  -0.01799600  -1.20482700
H    7.42952200  -0.54541700   0.52951000
H    7.49317300   1.88650400   1.27973600
H    7.06630000   2.44824800  -0.44401200