15
Properties=species:S:1:pos:R:3 pbc="F F F"
O        2.26925921      -0.39677984      -1.38517952
C        2.38281918       0.03148999      -0.03369999
C        3.14114881       1.33971953      -0.00273000
C        2.39151907       2.59445882      -0.49136981
N        3.00693870       3.35051894       0.62837976
C        3.18067861       2.07015920       1.35391951
H        1.78293943      -1.23945951      -1.37822950
H        2.92078876      -0.73920971       0.52753979
H        1.37637949       0.13254994       0.38564986
H        4.14169836       1.24494958      -0.45021984
H        1.29872954       2.54307890      -0.42509982
H        2.66567898       2.95109892      -1.48841953
H        3.89375854       3.78478861       0.36717987
H        4.11834860       1.98357916       1.91048932
H        2.34931922       1.84431934       2.03152919
