22
Properties=species:S:1:pos:R:3 pbc="F F F"
C       -0.32107988       0.75268972      -0.45006984
C        1.11452949       0.27527991      -0.59929979
C        2.10665917       1.43261945      -0.48015982
C        3.54760861       0.94249964      -0.64071971
N        4.47123814       2.07084918      -0.51995981
C        5.85758781       1.63521934      -0.67693973
C        6.79338741       2.82391882      -0.52043980
H       -1.01208961      -0.09209996      -0.53303981
H       -0.57640976       1.47806942      -1.22928953
H       -0.47841981       1.22558963       0.52454978
H        1.23001957      -0.21637993      -1.57223940
H        1.32508945      -0.47584984       0.17086993
H        1.98447931       1.91849935       0.49605983
H        1.88409925       2.18605924      -1.24621952
H        3.66168880       0.46911985      -1.62332940
H        3.76635838       0.19004993       0.12679996
H        4.35129833       2.51524901       0.39001986
H        6.00563812       1.19514966      -1.66948938
H        6.11182737       0.87840968       0.07384997
H        6.57808781       3.59945869      -1.26371944
H        7.83220673       2.50602913      -0.65688974
H        6.70619726       3.27012897       0.47626984
