17
Properties=species:S:1:pos:R:3 pbc="F F F"
C        0.94011968      -0.00174000       0.05755998
C        2.46986914      -0.00012000       0.09671996
C        2.97785878       0.00300000       1.54012942
C        3.03516889       1.16733956      -0.68380976
C        3.78068852       0.71880978      -1.70714939
C        3.78105855      -0.72196972      -1.70313942
C        3.03781891      -1.16777956      -0.68022978
H        0.55767977      -0.00188000      -0.97062963
H        0.53093982       0.88314962       0.55973983
H        0.53312975      -0.88766962       0.55926979
H        4.07389879       0.00258000       1.58761930
H        2.62542915      -0.88096970       2.08483934
H        2.62635899       0.88987970       2.08100915
H        2.86065888       2.20666909      -0.44711983
H        4.30506849       1.32442951      -2.42968917
H        4.30733871      -1.33011949      -2.42442894
H        2.86529899      -2.20718932      -0.43970984
