11
Properties=species:S:1:pos:R:3 pbc="F F F"
N        0.91348964      -0.04193998       0.10296996
C        2.07206917      -0.01980999       0.05845997
C        3.50721860       0.00792000      -0.00436000
C        4.19788837       1.01574957       0.91750968
O        5.08923769      -0.01234000       1.42250943
C        4.23439884      -1.03488958       0.84798968
H        3.89301848       0.04952998      -1.03093958
H        3.59667850       1.44300938       1.72725940
H        4.74632835       1.81317925       0.40778983
H        4.81023836      -1.77596939       0.28617990
H        3.64975882      -1.53710949       1.62626946
