14
Properties=species:S:1:pos:R:3 pbc="F F F"
N        0.99999964       0.00000000       0.00000000
C        2.15100908       0.00000000       0.00000000
C        3.59500861       0.00000000       0.00000000
C        4.17704868      -1.26481950       0.65009975
C        4.50093842      -0.89200968       2.09961915
C        4.63686800       0.59284979       2.03319931
C        4.13781834       1.08147955       0.89094967
H        3.98379850       0.10900996      -1.01797962
H        5.11043835      -1.53768945       0.13823995
H        3.51548862      -2.13667941       0.59366977
H        5.42472792      -1.37296951       2.43377924
H        3.68823838      -1.16901958       2.77925897
H        5.04959822       1.19298959       2.83302903
H        4.10161829       2.13340902       0.63992977
