13
Properties=species:S:1:pos:R:3 pbc="F F F"
C        1.91048932      -0.66082978      -1.19041955
C        2.06824923       0.29639986      -0.26705989
C        3.23694873       1.16653955      -0.13080995
C        3.51014853       2.19768929      -1.19443953
C        3.01875901       2.62927914       0.15597995
H        1.01206958      -1.26867962      -1.21611965
H        2.67431903      -0.85168970      -1.93733919
H        1.27041948       0.43647984       0.46188983
H        4.09571838       0.69684976       0.33892986
H        2.82706904       2.28209901      -2.03245926
H        4.54475832       2.39843917      -1.44808948
H        3.72074866       3.12456870       0.81731969
H        2.00543928       3.00892901       0.22559991
