17

C    2.45144300  -0.44967300   2.03565600
C    2.88506300  -0.40708000   0.57798700
C    3.29004800   0.95282700   0.05946500
O    2.62990400   2.02901500   0.45364000
C    5.00575200   1.19717600   0.66665000
C    5.97974500   1.29535500  -0.45670000
O    5.10063400   1.26460200   1.82520000
H    2.17256100  -1.47591500   2.30781500
H    1.55983400   0.16959000   2.22560300
H    3.25577400  -0.13631700   2.71871700
H    2.04985500  -0.70825400  -0.08347300
H    3.69141300  -1.12825500   0.37082800
H    3.49895900   1.01663200  -1.01868100
H    2.23175900   1.91206300   1.33262800
H    5.87246300   0.41939200  -1.11254700
H    6.99404900   1.36077300  -0.04189800
H    5.73722000   2.19876500  -1.03801400