18
Properties=species:S:1:pos:R:3 pbc="F F F"
C        3.39397860      -1.45352948       1.11752963
C        2.76707911      -0.08529997       1.36486948
N        3.26491880       0.96134961       0.46165982
C        2.49498916       2.19509935       0.62635976
C        4.71160793       1.21113956       0.55457979
C        5.17758799       1.63982928       1.88416922
C        5.56473780       1.98880923       2.96749902
H        2.87653899      -2.21291924       1.71328938
H        4.44953823      -1.47645950       1.40460944
H        3.31190896      -1.74185932       0.06433998
H        2.89734888       0.19229993       2.41797924
H        1.68700933      -0.19931993       1.20521951
H        1.43616951       2.01610923       0.40725985
H        2.83053899       2.96095896      -0.08193997
H        2.56591892       2.60504913       1.63993931
H        4.98925829       1.97293925      -0.18538992
H        5.26191759       0.31531990       0.24478991
H        5.90617752       2.29715919       3.92803860
