21
Properties=species:S:1:pos:R:3 pbc="F F F"
C        0.70934975      -0.40837985       0.34533986
C        1.96404922      -0.18180993       1.18626952
N        2.74414897       1.00399959       0.78477967
C        1.95643926       2.23531914       0.92289966
C        3.97929859       1.13257957       1.59329951
C        5.02389812       0.02480999       1.33702958
N        6.27258778       0.28424990       2.06072927
H        0.27237990      -1.38302958       0.58761978
H        0.94257963      -0.40226984      -0.72353971
H       -0.05557998       0.34772986       0.54291981
H        2.57717896      -1.08046961       1.06116962
H        1.68390930      -0.12675995       2.24543905
H        1.10536969       2.24165916       0.23534991
H        2.55718899       3.11170864       0.65423977
H        1.58529937       2.37418914       1.94435918
H        3.73647857       1.17419958       2.66320920
H        4.45967865       2.08761907       1.34083951
H        5.24101830      -0.04525998       0.26558992
H        4.64510822      -0.94787967       1.66691935
H        6.68583775       1.14907956       1.71290934
H        6.94040728      -0.45421982       1.83912933
