13
Properties=species:S:1:pos:R:3 pbc="F F F"
N        1.02882957       0.01627999       0.00000000
C        2.37237906      -0.01779999       0.00000000
N        3.13666892      -1.04231966       0.00000000
C        3.09949899       1.21762955       0.00000000
C        3.69457865       2.24833918       0.00000000
C        4.39757824       3.46596861       0.00000000
C        3.77087855       4.64689827      -0.00000000
H        0.53977978       0.90208972      -0.00000000
H        0.47921982      -0.82906967       0.00000000
H        2.56503916      -1.88726926       0.00000000
H        5.48322773       3.42726874      -0.00000000
H        2.68788886       4.72198868      -0.00000000
H        4.33886814       5.57121801       0.00000000
