15
Properties=species:S:1:pos:R:3 pbc="F F F"
C        1.16220951      -0.09614997      -0.04141998
N        2.62320900      -0.10413996      -0.02867999
C        3.20617890      -0.61221981      -1.26618958
C        3.22177863       0.86925966      -0.94491965
C        4.48834848       1.55233943      -0.52423978
C        5.11541843       1.97573924      -1.78045940
N        5.60851812       2.31450915      -2.77552915
H        0.79444969       0.65721971       0.66310978
H        0.78681970      -1.07045960       0.28868988
H        0.72021973       0.11851995      -1.02218962
H        2.54521894      -0.96392965      -2.05027914
H        4.12004852      -1.18400955      -1.15511954
H        2.54580903       1.52691936      -1.48298943
H        5.15146780       0.88481969       0.03643999
H        4.25764847       2.41643906       0.10704996
