15

C    1.14445300  -0.05907100  -0.59676300
C    2.42177900   0.08123600  -0.10832100
N    3.04680200   1.25646800   0.09747000
C    4.41442300   1.37488000   0.62129100
C    4.61151000   2.90074100   0.65146700
N    3.38286700   3.48010400   0.16037800
C    2.55873000   2.55850900  -0.12982700
H    0.73706400  -1.06368600  -0.72372300
H    0.50482200   0.78275800  -0.86876100
H    3.01343500  -0.80235100   0.14637800
H    5.10678500   0.84909100  -0.05350600
H    4.46438500   0.89911500   1.61241400
H    5.44418200   3.24268000   0.01738300
H    4.81033100   3.29202000   1.66126900
H    1.55289300   2.71932700  -0.52245000