17
Properties=species:S:1:pos:R:3 pbc="F F F"
C        1.04634964       0.07847998      -0.09269997
C        2.53440905      -0.00360000      -0.06418997
C        3.28468895      -0.70091975      -1.17115963
C        3.39209867       0.79573971      -1.01408958
O        2.71273899       1.59284937      -2.00457931
C        4.67258787       1.41480947      -0.52577978
O        5.45277834       1.80872929      -1.64986932
H        0.71025974       0.98499960       0.41949984
H        0.61521977      -0.78392971       0.42527983
H        0.64574975       0.09099997      -1.11091959
H        2.89798903      -0.13674995       0.94952965
H        2.72696900      -1.10075951      -2.00917912
H        4.14295816      -1.30618954      -0.89922965
H        2.17408919       1.04719961      -2.60325909
H        5.26417828       0.72260976       0.08077996
H        4.45911837       2.30547905       0.07339997
H        4.81556797       2.23726916      -2.25275922
