16
Properties=species:S:1:pos:R:3 pbc="F F F"
C        1.15187955      -0.24830991       0.24520990
C        2.55546904       0.12917995      -0.22305992
C        2.87111902      -0.54385978      -1.56636941
O        4.23341846      -0.35269988      -1.92565930
C        2.69162893       1.65437937      -0.31233990
O        4.02236843       2.01710916      -0.66782975
H        0.93257964       0.20233993       1.21833944
H        1.05648959      -1.33374953       0.35084987
H        0.39152986       0.09148997      -0.46565983
H        3.28925896      -0.23018992       0.51064980
H        2.24138927      -0.14811996      -2.36957908
H        2.69925880      -1.62311947      -1.50462949
H        4.39899826       0.61329979      -1.88055933
H        2.45047903       2.13150930       0.64323974
H        2.01849914       2.06343937      -1.07275963
H        4.58995819       1.80247927       0.09575997
