15
Properties=species:S:1:pos:R:3 pbc="F F F"
C        0.94193965      -0.01268000       0.04084998
C        2.45798922       0.00369000      -0.04200999
O        2.84913898       0.04208999      -1.43898940
C        3.15941882       1.03010964       0.88540965
N        4.13937855      -0.01387000       1.26360953
C        3.17912889      -1.05544960       0.83320969
H        0.59221977      -0.04217999       1.07865965
H        0.53391981      -0.88974971      -0.47296980
H        0.51736981       0.88137966      -0.42823982
H        3.82098842       0.05083998      -1.42436945
H        2.55686903       1.38570940       1.72927940
H        3.59941864       1.89821935       0.38509986
H        4.99699831       0.00804000       0.71252972
H        3.63472867      -1.88899922       0.28992987
H        2.58330894      -1.46403944       1.65778935
