15
Properties=species:S:1:pos:R:3 pbc="F F F"
N        0.98970962      -0.31744990      -0.21552992
C        2.31221914       0.13278995       0.24348991
C        3.50106883      -0.70920974      -0.39917985
N        4.30564833       0.59504980      -0.16951995
C        2.99119878       1.16119957      -0.76504970
C        3.02594900       0.56875980      -2.12822914
C        3.37158871      -0.69989973      -1.88000929
H        0.22922991       0.30832988       0.04391998
H        0.73188972      -1.24508953       0.11627995
H        2.37651920       0.35080987       1.31537950
H        3.87309861      -1.60714936       0.09297996
H        4.45514822       0.82806969       0.81001967
H        2.82833886       2.23336911      -0.65864974
H        2.81863880       1.04695964      -3.06861877
H        3.51671863      -1.51361942      -2.56800914
