16
Properties=species:S:1:pos:R:3 pbc="F F F"
C        1.00938964       0.03439999       0.01930999
C        2.49472904      -0.00647000      -0.02044999
C        3.27384877      -1.09267962      -0.09452996
C        4.72323799      -0.73752970      -0.07317997
C        4.70639849       0.76948971      -0.32243991
C        3.30614877       1.24909949       0.05973998
H        0.57752979      -0.96987963      -0.03823999
H        0.62212980       0.61631978      -0.82271969
H        0.66558975       0.49729982       0.94935966
H        2.91411901      -2.11200929      -0.13318995
H        5.15932798      -0.98043960       0.90115964
H        5.28302765      -1.26035953      -0.85388970
H        4.88656807       0.96930969      -1.38695943
H        5.48867798       1.28997946       0.23943990
H        2.95401883       2.01663923      -0.63589978
H        3.28617859       1.65209937       1.07792962
