15
Properties=species:S:1:pos:R:3 pbc="F F F"
C        1.07174969       0.18203993      -0.07238998
C        2.55325913      -0.07154997       0.18304993
O        3.33501863       1.07408965      -0.16040993
C        3.62731862       1.13179958      -1.55352938
O        4.36248875       0.00967000      -2.05464911
C        3.91879869      -1.18015957      -1.54619944
C        3.05691886      -1.28444946      -0.53249979
H        0.75344974       1.10562956       0.42258987
H        0.45916981      -0.64399976       0.30301988
H        0.85651964       0.30501989      -1.13895965
H        2.69481897      -0.22149992       1.25963950
H        4.24139833       2.02182913      -1.72245932
H        2.70885921       1.26108956      -2.13901925
H        4.36554813      -2.02179909      -2.05871940
H        2.74024892      -2.26170921      -0.18163994
