15
Properties=species:S:1:pos:R:3 pbc="F F F"
C        1.29444957       0.29584989       0.10691996
C        2.77666879       0.01385999      -0.15289994
C        2.91483879      -0.77727968      -1.40127957
N        3.02265882      -1.42667949      -2.35794902
N        3.48987865       1.30591953      -0.24777991
C        3.98402858       1.81216931       1.03081965
C        4.92440796       1.21080959       0.01932999
H        1.15305960       0.84347969       1.04531956
H        0.72775978      -0.63968980       0.18109992
H        0.84648967       0.88602966      -0.70170969
H        3.15381885      -0.59895980       0.67774969
H        3.77239847       1.25700951       1.93647933
H        3.98194861       2.89026880       1.14244962
H        5.55374813       1.88197923      -0.55371982
H        5.35980797       0.24066992       0.22722991
