16
Properties=species:S:1:pos:R:3 pbc="F F F"
C        1.67170942      -0.69221973      -0.92024964
C        2.96507883      -0.49684981      -0.14433995
C        3.14728880       0.93531960       0.27066991
C        4.18729830       1.68493938      -0.12343995
O        4.47867870       2.98467898       0.18111992
C        3.57227874       3.67112875       1.03625965
H        1.55701935      -1.74322939      -1.20398951
H        1.66475940      -0.09134997      -1.83577931
H        0.80158967      -0.40830988      -0.31881988
H        3.80760860      -0.83932966      -0.75667971
H        2.94825888      -1.12337959       0.75483972
H        2.38412929       1.33888948       0.92874968
H        4.96417809       1.30018961      -0.77704972
H        3.95012856       4.68761826       1.18110955
H        3.51750875       3.18859887       2.01761913
H        2.57979894       3.74162841       0.57920974
