18

N    1.77787700  -0.89457800  -0.66841900
C    2.97552600  -0.31502500  -0.26434700
C    3.12152400   1.14646400  -0.35509100
C    4.32631200   1.74935700  -0.18264500
C    4.56089800   3.21953900  -0.21381100
C    4.94028200   3.68259200   1.17886500
C    6.16369900   4.07594500   1.53101900
H    1.65820200  -1.90384800  -0.64520400
H    0.96054200  -0.33970000  -0.91184000
H    3.84058100  -0.85585700  -0.71661000
H    3.14778700  -0.57808700   0.82481700
H    2.23004100   1.75707800  -0.54098200
H    5.20475500   1.12810400   0.03777100
H    3.66619400   3.75001800  -0.57351800
H    5.38842500   3.43356300  -0.90990000
H    4.13381600   3.67210800   1.92015400
H    6.99236000   4.10099600   0.81667800
H    6.37617200   4.40860900   2.54950300