12
Properties=species:S:1:pos:R:3 pbc="F F F"
C        1.51071942      -0.07369997      -0.28895989
O        2.90102887       0.13861994      -0.07791997
C        3.35290861       1.43810940      -0.08936997
C        2.62133908       2.54782915      -0.28372988
C        4.82206821       1.61295938       0.14180996
O        5.39584827       2.69586921       0.16504994
H        1.32470942      -1.15157962      -0.24920991
H        1.20441949       0.28397989      -1.27779961
H        0.91718966       0.39933985       0.50046980
H        1.55364943       2.53106904      -0.45933983
H        3.08593893       3.53159857      -0.27216989
H        5.37012815       0.66735971       0.29492989
