15
Properties=species:S:1:pos:R:3 pbc="F F F"
C        1.00173962      -0.11887995      -0.19304992
C        2.50000906      -0.01348000       0.06979997
C        3.02738905       1.43281937       0.00000000
C        2.47898912       2.24674916       1.10662949
C        2.03343916       2.91137886       2.00294924
C        4.47138834       1.43281937       0.00000000
C        5.66154814       1.43281937       0.00000000
H        0.69358975      -1.16939962      -0.18894993
H        0.74447972       0.30457988      -1.16912961
H        0.42033985       0.40143985       0.57396978
H        3.01709890      -0.63073975      -0.67706972
H        2.72319913      -0.45843983       1.04877961
H        2.68506908       1.87487936      -0.94509965
H        1.64283943       3.50177884       2.79967904
H        6.72718716       1.43589950       0.00450000
