13
Properties=species:S:1:pos:R:3 pbc="F F F"
C        0.99963963      -0.24902990      -0.20741992
C        2.27240896      -0.26594990       0.20586991
C        3.19267893       0.85164970      -0.12546995
O        2.86606884       1.83054936      -0.78288972
C        4.58250809       0.68469971       0.34898987
C        5.19734812       1.72619927       1.24899948
O        4.73755836       0.47041982       1.76235938
H        0.32451990      -1.06342971       0.03387999
H        0.60177976       0.57667977      -0.79231972
H        2.66666913      -1.08759964       0.79227972
H        5.24629784       0.15558995      -0.32259986
H        4.62044811       2.61249900       1.48364937
H        6.26629782       1.88518929       1.19047964
