14
Properties=species:S:1:pos:R:3 pbc="F F F"
C        0.99171966      -0.03735999      -0.04176998
C        2.51999903       0.00000000       0.00000000
C        3.03825879      -0.76098973       1.21966958
O        3.00925899      -0.67073977      -1.16129959
C        3.00201893       1.36116946       0.00000000
C        3.39929867       2.48306894       0.00000000
H        0.61029977       0.46569982      -0.93813962
H        0.54910982       0.44938985       0.83375973
H        0.62771976      -1.06972957      -0.08733996
H        2.69906902      -0.30711988       2.15681911
H        4.13432837      -0.78437966       1.23109949
H        2.70642900      -1.80494940       1.19898963
H        2.80597878      -0.10150997      -1.92297935
H        3.76087856       3.48565865       0.00181000
