14
Properties=species:S:1:pos:R:3 pbc="F F F"
C        1.00558960       0.05600998       0.00649000
N        2.47466898       0.00123000      -0.05940998
C        3.10504866      -1.23967957      -0.10549996
C        2.57207894      -2.46745920      -0.11183996
C        3.15003896       1.21377957      -0.04734998
N        4.40689850       1.48518944      -0.11433996
H        0.62028980       1.08142960      -0.00825000
H        0.64907980      -0.41357982       0.92995965
H        0.56413978      -0.46302983      -0.85167968
H        4.18903828      -1.17548954      -0.13671996
H        1.50422943      -2.64344907      -0.08042996
H        3.21563864      -3.34178877      -0.14904995
H        2.46825910       2.07798910       0.03371999
H        4.95538807       0.63033974      -0.19288993
