20
Properties=species:S:1:pos:R:3 pbc="F F F"
C        1.36252952      -0.13730995       0.15724994
C        2.68969917       0.15692994      -0.56081980
C        2.64458919      -0.57987976      -1.88241935
C        3.44194889      -1.60547936      -2.21265936
N        2.91748881       1.60509932      -0.77747977
C        2.85438895       2.36924911       0.47285983
C        4.22232819       1.85075939      -1.40852952
H        1.38209939       0.20319992       1.19778955
H        1.15887952      -1.21509957       0.18476993
H        0.51585984       0.34678987      -0.34523988
H        3.49913859      -0.25166991       0.06085998
H        1.90574932      -0.23261991      -2.60296917
H        4.19745827      -1.98279929      -1.52993941
H        3.35567880      -2.08368921      -3.18252873
H        1.84425926       2.36280894       0.89407969
H        3.08881879       3.42557883       0.29465988
H        3.55450869       1.98733926       1.22509956
H        4.27569818       1.41047955      -2.41015911
H        5.05084848       1.45617950      -0.80879974
H        4.38511801       2.92553902      -1.55107939
