16
Properties=species:S:1:pos:R:3 pbc="F F F"
N        0.91146964      -0.06198998       0.22086993
C        2.37014914      -0.00548000       0.07977997
C        2.80060911       1.32452953      -0.60535979
C        3.89350843       1.19618964      -1.63142931
C        4.32124853       0.01120000      -2.08574915
C        3.75229859      -1.22489965      -1.60985947
C        2.85161901      -1.24823952      -0.61655974
H        0.58511978       0.78030968       0.69080973
H        0.66277975      -0.84211969       0.82523966
H        2.79584908      -0.01420000       1.09211957
H        3.12796879       2.02312922       0.17325993
H        1.94446921       1.80057931      -1.09766960
H        4.32116842       2.11254930      -2.02756929
H        5.09561777      -0.04842998      -2.84326887
H        4.08183861      -2.14497924      -2.07671928
H        2.46928906      -2.20413899      -0.27389991
