15
Properties=species:S:1:pos:R:3 pbc="F F F"
C        0.93554962       0.03604999      -0.12528996
C        2.40527916       0.10578996       0.08797997
O        3.17632866      -0.65321976      -0.84372967
C        3.31310868       0.78152972      -0.91500968
C        4.69700813       1.29636955      -0.57331979
C        5.90181780       1.05408967      -1.44824946
O        5.20756817       2.30517912      -1.46156943
H        0.44674981       0.89112967       0.35072985
H        0.53374982      -0.87860972       0.32064989
H        0.67301977       0.04093999      -1.18783963
H        2.69009900       0.07852997       1.13081956
H        2.83088899       1.26659954      -1.76035941
H        4.89672852       1.44157946       0.48425981
H        5.78875780       0.40215987      -2.30551910
H        6.87708712       1.02427959      -0.97934961
