14
Properties=species:S:1:pos:R:3 pbc="F F F"
C        1.00332963       0.02981999       0.04978998
C        2.48177910       0.03087999      -0.04162998
C        3.30711889      -1.00547969      -0.15257993
O        4.65221834      -0.70953971      -0.19399992
C        4.67830849       0.72816974      -0.32268989
C        3.29329872       1.26891959       0.02686999
H        0.59837979      -0.98586965      -0.00461000
H        0.57092977       0.60891974      -0.77225971
H        0.67770970       0.47365981       0.99560964
H        3.07354903      -2.05653930      -0.18388993
H        4.94551802       0.96999967      -1.35862947
H        5.45331812       1.13566959       0.33444989
H        2.97588897       2.03759933      -0.68341970
H        3.27527881       1.69007933       1.03759956
