12

C    0.46094800   1.50035100   0.32124900
C    1.04350300   0.29505600  -0.43816200
C    0.96988400  -1.10739300   0.11611500
N   -0.44823800  -1.38222700   0.25202100
C   -1.14771000  -0.38962600  -0.13441300
N   -0.33505100   0.68761700  -0.55648200
H    0.79729500   2.46221400  -0.08166000
H    0.18283400   1.47875500   1.38064200
H    1.72125900   0.57476800  -1.25279600
H    1.44507900  -1.21230000   1.10835700
H    1.44768800  -1.86415000  -0.52915800
H   -2.23729100  -0.30864500  -0.13303500