10

N    0.96465600   0.00369700  -0.00644700
C    2.12599500  -0.04090900  -0.00220700
C    3.53561200  -0.04916000   0.00282100
C    4.38133900   1.14179000   0.00301500
N    5.61398800   0.66618500   0.00851600
C    5.53750300  -0.73048800   0.01153900
N    4.29634000  -1.15247800   0.00811900
H    4.12022800   2.20149000  -0.00041200
H    6.47260700   1.21852900   0.01026400
H    6.43098600  -1.35859600   0.01619200