15
Properties=species:S:1:pos:R:3 pbc="F F F"
O        0.89212966      -0.07270997      -0.16962995
C        2.11460924      -0.01041000      -0.06280998
C        2.83204889       1.28100944       0.26311991
C        4.24531841       1.28794944      -0.30386990
C        5.03697824       0.05399998       0.12423996
C        4.25147867      -1.21197963      -0.04526998
C        2.91762900      -1.25432944      -0.16253994
H        2.26588917       2.11316919      -0.16892995
H        2.84722900       1.39927948       1.35192943
H        4.77222824       2.19561911       0.01182000
H        4.19280863       1.31654942      -1.40037942
H        5.34266806       0.14308995       1.17309952
H        5.95230770      -0.00522000      -0.47577983
H        4.81406832      -2.14222908      -0.07703997
H        2.36864924      -2.17884922      -0.29600990
