19
Properties=species:S:1:pos:R:3 pbc="F F F"
C        0.98139960       0.01562999      -0.00552000
C        2.50247908       0.00842000       0.02817999
O        2.95811892       0.13960995      -1.31928957
C        3.07987881       1.13783967       0.88080966
C        4.49274874       0.66134977       1.18926954
C        4.35161829      -0.84202969       1.39270949
C        3.08125901      -1.26924956       0.64783978
H        0.55211979      -0.07747997       0.99703962
H        0.60378981      -0.80809969      -0.62124979
H        0.60819978       0.94183964      -0.45621985
H        3.92436862       0.03778999      -1.33307958
H        2.51903915       1.25321949       1.81608927
H        3.09654903       2.09924912       0.35765988
H        5.15812778       0.86517966       0.34228987
H        4.91425848       1.15895951       2.06774926
H        5.23478794      -1.37766957       1.03028965
H        4.24649858      -1.07099962       2.45962906
H        3.31528878      -2.02400923      -0.11109996
H        2.38580894      -1.71910942       1.36630940
