19
Properties=species:S:1:pos:R:3 pbc="F F F"
C        1.26642954      -0.24126992       0.36516985
N        2.69039917       0.06425998       0.42106983
C        2.97313881       1.50023937       0.23329991
C        2.44781923       2.38610911       1.40595949
N        2.69788909       3.82333875       1.22207952
C        4.47795820       1.62232935       0.11095996
C        5.11916780       2.13301921      -0.94990963
H        1.13279951      -1.32752955       0.37876984
H        0.80385971       0.13924995      -0.55056977
H        0.73272973       0.15323994       1.23385954
H        3.15097880      -0.43854985      -0.33905989
H        2.50519896       1.83804929      -0.70182973
H        2.90732908       2.06674933       2.34945917
H        1.36572945       2.26323915       1.51437938
H        3.69938850       3.96800852       1.09170961
H        2.44981909       4.31273842       2.08021927
H        5.06177807       1.26196957       0.95563960
H        4.57956791       2.50808907      -1.81326938
H        6.20208740       2.18748927      -0.96982968
