17
Properties=species:S:1:pos:R:3 pbc="F F F"
C        2.64242911       0.46738982       1.54366946
O        2.39513922       1.67813945       0.84108967
C        3.44012880       2.27637911       0.15577994
C        3.02900887       3.63174868      -0.37829986
O        2.47946906       4.40798855       0.68521971
C        4.66774845       1.73688936       0.00503000
C        5.84837818       2.32404923      -0.70355976
H        1.71346927       0.17283992       2.04464912
H        3.40778875       0.61256981       2.31524920
H        2.92185903      -0.33974987       0.85694969
H        2.25391912       3.50844860      -1.14229953
H        3.84474850       4.20940876      -0.81527972
H        1.99481928       3.77176857       1.24107957
H        4.88379860       0.76085967       0.42657983
H        5.63974810       3.26319885      -1.21908951
H        6.21515751       1.61370933      -1.45359945
H        6.65622759       2.50324893       0.01513999
