19
Properties=species:S:1:pos:R:3 pbc="F F F"
C        0.92556965      -0.15027994      -0.28263989
C        2.43116903      -0.18989994      -0.07768998
C        3.01013875       1.21423960       0.09620997
C        4.50731802       1.19575953       0.25520989
C        5.07340813       0.54883981       1.48006940
C        5.39079809       1.37804949      -0.96008968
O        5.12156820       2.45797896      -0.05450998
H        0.53012979      -1.16614950      -0.38633984
H        0.66667974       0.40871984      -1.18770945
H        0.42574984       0.32280988       0.56871980
H        2.90286875      -0.68513978      -0.93417966
H        2.65288901      -0.80055970       0.80443972
H        2.56171894       1.69530940       0.97503966
H        2.73092890       1.82905936      -0.77019972
H        6.12449741       0.81857973       1.63462937
H        5.01985788      -0.54106981       1.39552951
H        4.51658821       0.85333967       2.37290907
H        4.93387794       1.42339957      -1.94064927
H        6.38829803       0.95683962      -0.95116961
