15

C    0.87530100  -0.00124300  -0.22779700
C    2.41660500   0.00098400   0.00551800
C    2.90215100   1.23507000   0.66444400
C    3.68831000   1.18647100   1.77316900
O    4.06016800   0.02327800   2.31170300
C    3.68822700  -1.15011000   1.79581800
C    2.90206800  -1.22013500   0.68823900
H    0.58696900  -0.89807000  -0.79128400
H    0.58700000   0.88452300  -0.80853300
H    0.34307700   0.00806400   0.73244400
H    2.84869500  -0.00901600  -1.02535300
H    2.62385700   2.21168800   0.26151100
H    4.07983000   2.04490400   2.31991100
H    4.07968300  -1.99781100   2.35909900
H    2.62370400  -2.20435800   0.30430900