15
Properties=species:S:1:pos:R:3 pbc="F F F"
C        2.93591881      -0.87836969       0.50722980
C        2.54139900       0.38706985       0.68730974
O        3.22210860       1.54530942       0.44304982
C        4.54287815       1.42642951      -0.09376996
C        5.10579777       2.82949901      -0.30328986
C        6.44912767       2.78833890      -0.89806968
C        7.54504728       2.75482917      -1.38831949
H        2.26405907      -1.69463933       0.75398970
H        3.91130853      -1.14646959       0.12051996
H        1.55785942       0.62751979       1.07834959
H        4.50814819       0.89390969      -1.05278957
H        5.18126822       0.87141973       0.60547978
H        5.13186836       3.36039853       0.65577972
H        4.42714834       3.40493870      -0.94426966
H        8.51650715       2.72647882      -1.82532930
