15

O    1.27793000   0.26438300   0.39617200
C    2.56042000   0.10569200   0.10877500
C    2.76656200  -1.54694700  -0.45017700
C    2.54003800  -1.48696200  -1.93706200
C    2.88893600  -0.06540300  -2.34921600
O    1.87261000   0.87629600  -2.02269900
C    2.98296700   0.81805500  -1.17994600
H    0.80065500   0.51392600  -0.43206500
H    3.18087100   0.16741100   1.01286400
H    2.08234000  -2.14075600   0.16659700
H    3.81840100  -1.68932500  -0.16457500
H    3.21657800  -2.20162300  -2.43512500
H    1.51387900  -1.74198400  -2.23809300
H    3.42988600   0.14414200  -3.27585000
H    3.62326100   1.70484800  -1.08518600