15
Properties=species:S:1:pos:R:3 pbc="F F F"
C       -1.04440963       0.00022000      -1.19151962
C       -0.53841978       1.01624966      -0.06373998
C       -1.35089946       0.00015000       0.86882967
C       -0.53771979      -1.01626968      -0.06380998
C        0.96071959      -0.78200972       0.19697993
O        1.69674933       0.00053000      -0.73295975
C        0.96209961       0.78170967       0.19678994
H       -2.11671925       0.00014000      -1.41721940
H       -0.48575982       0.00013000      -2.13147926
H       -0.88527972       2.04810929      -0.11525996
H       -1.07797956      -0.00003000       1.92801929
H       -2.44250917       0.00005000       0.77719975
H       -0.88525969      -2.04796910      -0.11541995
H        1.38653946      -1.29191959       1.04693961
H        1.38636947       1.29203951       1.04698956
