20
Properties=species:S:1:pos:R:3 pbc="F F F"
C        2.30119896      -0.67758971       1.44998944
C        2.73180890      -0.23169991       0.05428998
N        1.61454940      -0.35432985      -0.88174963
C        3.20142889       1.19631958       0.06936997
C        4.46953821       1.65317941       0.02078999
C        5.70058775       0.79119968      -0.02529999
C        4.75111818       3.13331890       0.01260000
H        3.14034891      -0.61939973       2.15254927
H        1.95163929      -1.71615946       1.43847942
H        1.49057949      -0.05446998       1.84590924
H        3.52036858      -0.90003967      -0.30228987
H        0.79689974       0.11563995      -0.49750981
H        1.35546958      -1.33620942      -0.96060967
H        2.40067911       1.93409932       0.11849996
H        5.49292803      -0.27204990       0.11259995
H        6.39348793       1.08360958       0.77115971
H        6.21000767       0.91370964      -0.98655963
H        3.83460855       3.73229861       0.03362999
H        5.30593777       3.40778875      -0.89061964
H        5.34927797       3.41059875       0.88676965
