15

C    2.41623200  -1.02872900  -0.53899000
O    2.47588300   0.30076700  -1.10483200
C    3.40516200   1.11311000  -0.81325700
C    3.32328700   2.51172800  -1.24344600
C    2.78999200   2.88701200   0.11765900
C    3.60300500   3.30211100   1.15096300
C    4.32439700   3.68549200   2.06470100
H    2.23620800  -1.71245800  -1.37503000
H    1.56849300  -1.04582600   0.15608100
H    3.35739500  -1.26732700  -0.02613700
H    4.24720200   0.76572000  -0.19428400
H    2.59713400   2.66813300  -2.05000800
H    4.30305100   2.95602400  -1.45701100
H    1.71040900   2.80499300   0.28358700
H    4.94964000   4.03415100   2.87136500