15
Properties=species:S:1:pos:R:3 pbc="F F F"
C        1.70828938      -0.71217978       0.19691993
C        3.18293881      -0.41071984      -0.01430000
C        3.47258854       1.08254957       0.11214996
C        4.93686819       1.39859951      -0.09677996
O        5.81347752       0.56835979      -0.29889989
C        5.28936768       2.80200887      -0.03960998
C        5.58495760       3.96594858       0.00717000
H        1.52274942      -1.78614926       0.09680996
H        1.09132957      -0.19053993      -0.54171979
H        1.38407946      -0.40308985       1.19576955
H        3.48723865      -0.76770973      -1.00551963
H        3.77531862      -0.97062963       0.71924978
H        3.18501878       1.43523955       1.10943961
H        2.89121890       1.63760948      -0.63324976
H        5.85887814       4.99460793       0.04668998
