17
Properties=species:S:1:pos:R:3 pbc="F F F"
O        0.98068959      -0.16017993       0.02585999
C        2.41086912      -0.22834992      -0.03135999
C        2.97607899      -0.66269976      -1.35191953
C        3.06873870       0.78228968      -0.93234962
C        4.39481831       1.38024950      -0.56404978
C        4.31626844       2.35987926       0.57293975
C        4.97801828       2.22253895       1.72982931
H        0.69208980       0.52731979       0.65068978
H        2.93762898      -0.54066980       0.86486971
H        2.27790904      -0.92178965      -2.13927937
H        3.86972857      -1.27452946      -1.33633959
H        2.43070912       1.49321949      -1.44568944
H        4.79251814       1.90522933      -1.44129956
H        5.11635780       0.58690977      -0.33031988
H        3.68089867       3.23053885       0.42722985
H        5.62725830       1.37308943       1.91873932
H        4.88344812       2.96547890       2.51542902
