18

C    1.00999500   0.01615300  -0.07021700
C    2.52577300  -0.02576300  -0.04542300
C    3.26107200  -0.91678000  -0.98289800
C    2.70987600  -1.53593500  -2.19953600
C    3.27731200   0.91661400  -0.91574900
C    4.57176800   1.53285500  -0.58096400
H    0.66233900   0.83889900   0.56849700
H    0.60273200  -0.92491300   0.32352600
H    0.60613700   0.17877800  -1.07870600
H    2.96859600  -0.07275800   0.96015000
H    4.26182300  -1.23956200  -0.67319500
H    1.77606000  -1.08322900  -2.55270900
H    2.49679200  -2.59402800  -1.94419900
H    3.45576300  -1.57439500  -3.00818400
H    2.75972200   1.27565100  -1.81426400
H    5.07752100   1.05469200   0.26779700
H    4.35938400   2.58560000  -0.30566800
H    5.23979600   1.58723000  -1.45470200