15
Properties=species:S:1:pos:R:3 pbc="F F F"
C        0.82036966       0.07962997      -0.14976995
C        1.92402923       0.33835989       0.56202978
C        2.91904879       1.31918943       0.06621998
C        2.51454926       2.81903911       0.19193992
C        3.85320854       3.15554881       0.88930970
C        4.03433847       1.64023936       1.10201955
O        4.76336813       0.97891963       1.81039929
H        0.09422997      -0.64705974       0.20389992
H        0.61135978       0.57323980      -1.09408951
H        2.11181927      -0.18220994       1.49892950
H        3.33982873       1.04978955      -0.91020966
H        1.64046931       3.01234865       0.82619965
H        2.35998917       3.33017874      -0.76369977
H        4.61627817       3.58905864       0.23683991
H        3.76603842       3.73709869       1.80920935
