15
Properties=species:S:1:pos:R:3 pbc="F F F"
C        0.96023959      -0.06595998       0.40210986
C        2.26468921       0.47780982      -0.17248993
C        2.52573895       0.01258000      -1.60548949
C        1.45089948       0.44698983      -2.57066917
O        0.52892977      -0.28854987      -2.91221905
C        2.28526902       1.98730934      -0.04348998
O        2.56965899       2.74764895      -0.96307969
H        0.85629970       0.21313992       1.45657945
H        0.93112969      -1.15856957       0.33968985
H        0.08677997       0.33462986      -0.12309995
H        3.08883905       0.11370996       0.45401981
H        2.59053898      -1.08133960      -1.63967931
H        3.47956872       0.40201986      -1.97942924
H        1.50629938       1.48953950      -2.92733884
H        2.07642937       2.38273907       0.96636963
