18
Properties=species:S:1:pos:R:3 pbc="F F F"
C        1.93693936      -0.76695973      -0.22039992
N        1.83194935       0.68517971      -0.15761994
C        3.13084888       1.32376957       0.09496997
C        3.84963870       1.98479927      -1.04433966
C        3.22970867       2.83162880       0.03400999
C        4.08026838       3.50489855       1.02193964
C        5.12780809       4.29657841       0.75917971
H        0.96017963      -1.19627953      -0.46111983
H        2.26183915      -1.18091953       0.73996973
H        2.64126897      -1.08068967      -0.99794966
H        1.16683960       0.93794966       0.57296979
H        3.75173855       0.82829970       0.84083968
H        3.37422872       1.99190927      -2.01836920
H        4.92759800       1.88459921      -1.08512962
H        2.33277893       3.38268876      -0.22929992
H        3.80932856       3.35018873       2.06609917
H        5.44054794       4.49410820      -0.26150990
H        5.69366789       4.75751829       1.56012940
