12
Properties=species:S:1:pos:R:3 pbc="F F F"
O        1.19392955      -0.10491996       0.37305984
C        2.35663915      -0.02744999       0.01292999
C        3.19808888       1.21231949       0.05036998
C        4.34145832       0.84057969      -0.85967970
C        4.43565845      -0.65050972      -0.66993976
O        3.09513903      -1.08310962      -0.44097981
H        3.53460860       1.38496947       1.07665968
H        2.64716887       2.07636929      -0.32782987
H        4.07123852       1.06597960      -1.89862919
H        5.27292824       1.36481953      -0.63071978
H        4.83940840      -1.15079963      -1.55472946
H        5.04333782      -0.92137963       0.19996992
