14
Properties=species:S:1:pos:R:3 pbc="F F F"
C        0.92907965      -0.01549999      -0.13726994
C        2.40522909      -0.05931998       0.06033998
O        2.81390882      -0.17353994       1.43366957
C        3.28871894      -0.74427968      -0.94376963
C        3.32758880       0.75362968      -0.81752968
O        4.47659826       1.29490948      -0.14040995
H        0.65802979       0.05165998      -1.19515955
H        0.50453979       0.85239965       0.37757987
H        0.46565983      -0.91758966       0.27506989
H        3.51248884       0.48752984       1.61083937
H        2.82953906      -1.16464961      -1.82886934
H        4.12412834      -1.32217944      -0.56711984
H        2.88706875       1.34011948      -1.61875939
H        5.29965782       0.99749959      -0.56858975
