17

C    3.02580500  -1.23110300  -0.42545100
C    2.47590200   0.10052900   0.12778100
C    3.51884000   1.14617200  -0.03433200
C    3.52556300   2.15699100  -1.07998000
C    2.90854000   2.80798800   0.15209500
C    3.64127000   3.54655300   1.05996400
C    4.28612000   4.20674900   1.87158900
H    2.26034000  -2.00755800  -0.29495900
H    3.92907700  -1.55095700   0.11262500
H    3.26034800  -1.15559700  -1.49627100
H    2.23529400  -0.02476600   1.19505700
H    1.55484500   0.38090500  -0.40486700
H    4.43565700   1.03378300   0.55593800
H    2.79407200   2.03611100  -1.88615100
H    4.49208300   2.57630100  -1.37390000
H    1.81717100   2.82212800   0.24132100
H    4.84685300   4.79449300   2.58386900