8
Properties=species:S:1:pos:R:3 pbc="F F F"
O        0.92707962      -0.08411998       0.00000000
C        2.14944935      -0.07098997       0.00000000
C        2.87633896       1.17069960       0.00000000
C        3.48553872       2.20459914       0.00000000
C        4.26366854       3.52417874       0.00000000
C        4.87183857       4.55859852       0.00000000
H        2.76368904      -0.98502964       0.00000000
H        5.40915823       5.47890806       0.00000000
