13
Properties=species:S:1:pos:R:3 pbc="F F F"
C        1.05157959      -0.02578999       0.09369996
C        2.38220930       0.05595998       0.00490000
C        3.23986888       1.26201952       0.02700999
C        4.40630865       0.76788968      -0.79214972
O        4.49166870      -0.64017975      -0.55694979
C        3.26340890      -1.11548960      -0.20504992
O        2.95796895      -2.28547907      -0.07349997
H        0.54681981      -0.98816967       0.03877999
H        0.43633983       0.85817969       0.22175992
H        3.55196881       1.47213948       1.05712962
H        2.77872896       2.15668917      -0.39867985
H        4.25934839       0.93378961      -1.86542928
H        5.34302807       1.24670959      -0.49129981
