17
Properties=species:S:1:pos:R:3 pbc="F F F"
C        0.92110968      -0.02772999      -0.02939999
C        2.45407891      -0.04275998      -0.05593998
C        3.00444889       0.04813998       1.36680949
C        3.00044894      -1.27910960      -0.79970968
C        3.40821862      -0.68697977      -2.09541917
C        3.33411884       0.63390976      -1.99621928
O        2.89117885       1.13245952      -0.79047972
H        0.50761980      -0.04721998      -1.04421961
H        0.54986984       0.89200968       0.43686986
H        0.52092981      -0.88435972       0.52328980
H        4.09877825       0.10939996       1.35889947
H        2.70819902      -0.81711972       1.96769929
H        2.64912891       0.95743960       1.86486936
H        2.24571919      -2.06233931      -0.92186970
H        3.87346864      -1.71705937      -0.30228987
H        3.75254869      -1.23746943      -2.95668888
H        3.59687877       1.38028944      -2.72728896
