14
Properties=species:S:1:pos:R:3 pbc="F F F"
C        0.88873965      -0.01698999       0.02257999
C        2.40670919       0.01059000      -0.02672999
O        2.83752894      -0.58450979      -1.25330961
C        2.95821881       1.44452953       0.05192998
N        4.41614819       1.42937946      -0.13812995
H        0.51361978       0.42057985       0.95233965
H        0.52335978      -1.04675961      -0.05214998
H        0.45851985       0.53049982      -0.82301968
H        2.81250906      -0.59403980       0.79276967
H        3.73064852      -0.21027993      -1.40513945
H        2.70800900       1.90528929       1.01290965
H        2.52526903       2.05565929      -0.74756974
H        4.85303831       0.94803965       0.64925975
H        4.76213837       2.38910913      -0.10261996
