19
Properties=species:S:1:pos:R:3 pbc="F F F"
C        3.06899881      -1.12540948      -0.64556980
C        2.54281902       0.04728998       0.16868994
C        3.34664893       1.32952952      -0.05574998
C        3.29740858       1.86194932      -1.49658942
C        3.39133883       3.33990884      -1.29964960
C        3.15123868       3.68606877      -0.03042999
C        2.85894895       2.49425888       0.82089972
H        2.49515891      -2.02957916      -0.41790983
H        4.12024832      -1.32425940      -0.41303983
H        2.98347878      -0.93683970      -1.72026944
H        2.57724881      -0.21849991       1.23186946
H        1.48864949       0.21331991      -0.08290996
H        4.39796829       1.12896955       0.20095994
H        2.36351895       1.60973930      -2.01006913
H        4.14002848       1.48268938      -2.08301926
H        3.59292865       4.03794861      -2.10077929
H        3.13193893       4.70260859       0.33700988
H        3.41209888       2.52978897       1.76455927
H        1.78719938       2.44064903       1.03977954
