18
Properties=species:S:1:pos:R:3 pbc="F F F"
C        0.92270964      -0.07293997       0.08493997
C        2.44607902      -0.08793997      -0.03868998
N        2.84067893      -0.98234963      -1.12763953
C        2.98418880       1.33188951      -0.27231991
C        4.51362848       1.38972938      -0.31168988
C        4.98344803       2.77787900      -0.44969982
C        5.37113810       3.90966845      -0.56541979
H        0.60908973       0.56388980       0.91911966
H        0.53320986      -1.07963955       0.27304989
H        0.44849983       0.30861989      -0.82636970
H        2.86645889      -0.47903982       0.89527965
H        2.43587899      -0.65716976      -2.00589919
H        2.44874907      -1.91046929      -0.96819967
H        2.62128901       1.98571920       0.53254980
H        2.57541895       1.74229932      -1.20598948
H        4.89811802       0.79738969      -1.14947951
H        4.92582798       0.95688969       0.60727978
H        5.71668768       4.91153812      -0.67038971
