15
Properties=species:S:1:pos:R:3 pbc="F F F"
C        0.88151962       0.11713996      -0.00607000
C        2.38509917       0.02272999      -0.00723000
C        2.92838883      -1.38073945       0.00555000
O        2.58666897      -2.01872921      -1.21715963
C        3.13901877       1.13798952       0.00000000
C        4.54501867       1.13798952       0.00000000
C        5.73517752       1.13798952       0.00000000
H        0.53160977       1.15455961       0.02473999
H        0.46953982      -0.39591986       0.86928964
H        0.46643981      -0.34429985      -0.90796965
H        2.48667908      -1.95225918       0.82867968
H        4.01438856      -1.43213952       0.12345995
H        2.96574903      -1.46888936      -1.92446923
H        2.65716910       2.11277914      -0.00032000
H        6.80046749       1.13867950       0.00125000
