15
Properties=species:S:1:pos:R:3 pbc="F F F"
C       -1.41024947       0.64759976       0.15224995
C       -1.42415941      -0.81879967      -0.26760989
C       -0.29043990      -1.59621942       0.33150989
C        0.95760965      -1.14122963       0.49891981
C        1.48280942       0.11591996       0.02500999
C        0.83580971       1.18796957      -0.45661983
O       -0.49467984       1.44580948      -0.59465975
H       -2.40296912       1.06986964      -0.04349998
H       -1.22824955       0.77488971       1.22783947
H       -1.40449953      -0.92374969      -1.35809946
H       -2.35779929      -1.26694953       0.09306996
H       -0.52590978      -2.60089898       0.67442971
H        1.68908930      -1.79977930       0.96515965
H        2.57200909       0.16117993       0.02074999
H        1.38937950       2.03224921      -0.85618967
