13
Properties=species:S:1:pos:R:3 pbc="F F F"
C        1.05704963      -0.10269996      -0.00639000
C        2.52005911       0.09049996       0.00076000
C        3.33316875       1.20589960       0.00278000
C        4.66691828       0.72807974       0.01032000
C        4.57072830      -0.63884974       0.01225000
O        5.44093752      -1.62677944       0.01834999
O        3.27962899      -1.04345965       0.00647000
H        0.53379977       0.85847968       0.00221000
H        0.74134976      -0.67055970       0.87421972
H        0.74791968      -0.65132976      -0.90132964
H        3.00440884       2.23571897      -0.00074000
H        5.58205795       1.30121946       0.01387000
H        4.87351847      -2.41705918       0.01697999
