19
Properties=species:S:1:pos:R:3 pbc="F F F"
C        1.01066959       0.53967977       0.45508984
C        2.50483894       0.57458979       0.73480970
N        3.17183876       1.45741940      -0.22125992
C        4.62519836       1.50180948      -0.01934999
C        5.51592827       0.66216975      -0.89016968
C        5.49057770       2.14966941      -1.07570958
N        6.64975739       2.95253897      -0.68345970
H        0.50648981      -0.10342996       1.18321955
H        0.80520970       0.14375995      -0.54481977
H        0.56881976       1.53905940       0.52667981
H        2.90884876      -0.44145980       0.65963978
H        2.67153907       0.93021965       1.75839925
H        2.77371883       2.39410925      -0.15288994
H        4.94053793       1.64251947       1.01240957
H        5.05706835       0.05509998      -1.66245937
H        6.38892746       0.20798993      -0.43902984
H        4.98959827       2.50795913      -1.97319925
H        7.11804724       2.56083918       0.13218996
H        6.35632753       3.89208865      -0.41770983
