15
Properties=species:S:1:pos:R:3 pbc="F F F"
C        0.98463959      -0.00493000      -0.01753999
C        2.51999903       0.00000000       0.00000000
C        3.01475883      -0.72375971       1.26177955
C        3.04308867      -0.73377973      -1.24258947
C        3.00201893       1.36116946       0.00000000
N        3.38622880       2.44615912       0.00000000
H        0.59305978       0.50365984      -0.90727961
H        0.57284981       0.51072979       0.85880971
H        0.59003973      -1.02776968      -0.01796999
H        2.65930915      -0.22671992       2.17202926
H        4.11000824      -0.74213976       1.30752945
H        2.66215897      -1.76076937       1.28832948
H        2.70725918      -0.24635990      -2.16675925
H        2.69323897      -1.77282941      -1.26851952
H        4.14013863      -0.75130969      -1.26541960
