17
Properties=species:S:1:pos:R:3 pbc="F F F"
C        1.01077962       0.06559997       0.39636987
C        2.46730900       0.03271999      -0.04842998
C        2.86308908      -1.30990946      -0.68152976
C        2.68510890      -1.09039962      -2.14899921
C        3.71925855      -0.32075986      -2.92746878
C        2.52583885       0.38205984      -2.36305904
O        2.65619898       1.03096962      -1.07516968
H        0.75652975       1.05624962       0.78801966
H        0.81796968      -0.67865974       1.17465961
H        0.33221987      -0.12238995      -0.44304982
H        3.11737895       0.27035990       0.80004972
H        2.26617932      -2.14477921      -0.30185989
H        3.91631842      -1.52949941      -0.47004983
H        2.00807929      -1.76859927      -2.64476895
H        4.68417835      -0.12643996      -2.47472906
H        3.75666881      -0.46552983      -4.00074863
H        1.75757933       0.73146975      -3.04203892
