20
Properties=species:S:1:pos:R:3 pbc="F F F"
C        1.11958957       0.39627984       0.94918966
N        2.57408905       0.43284982       0.89452964
C        3.03641891       1.47552955      -0.01607000
C        4.53352833       1.45746946       0.00642000
C        5.31569815       0.63694978      -0.99216962
C        5.31287813       2.14064932      -1.09137964
C        6.53780746       2.92131901      -0.75498968
H        0.80187964      -0.36793986       1.66427934
H        0.68827975       0.14762993      -0.02511999
H        0.71114975       1.35340953       1.28821945
H        2.92367887      -0.46758983       0.56902975
H        2.69015908       2.45997906       0.31905988
H        2.65622902       1.30400944      -1.03045964
H        4.92202806       1.53912950       1.01685965
H        4.77328825       0.08089998      -1.74847937
H        6.21277761       0.13940994      -0.64085978
H        4.76350784       2.59245896      -1.90994930
H        7.11791706       2.45246911       0.04760998
H        6.26320744       3.92971849      -0.43089986
H        7.18324709       3.00852895      -1.63413942
