16

N    1.03917500   0.01873900  -0.16329000
C    2.40579800   0.01701600  -0.04077200
C    3.14259600   1.06571100   0.77151100
C    4.14085800  -0.04941400   1.15916300
N    5.17372300  -0.13458200   0.19616300
C    3.06747000  -1.13352500   0.91111300
H    0.55779800  -0.73568600  -0.64742500
H    0.45802600   0.70366200   0.31396400
H    2.94188200  -0.19016600  -0.99497400
H    2.55532700   1.40519100   1.63649800
H    3.55043000   1.93342400   0.23622700
H    4.47359200  -0.04294500   2.21754000
H    5.67845900   0.72617200   0.00433200
H    5.79940900  -0.93112300   0.27778900
H    3.35231900  -2.06497800   0.40594800
H    2.42544900  -1.31689600   1.78234000