15
Properties=species:S:1:pos:R:3 pbc="F F F"
C        0.99308962      -0.01605999      -0.17409992
N        2.42746902       0.02886999       0.06940997
C        3.09934878       1.22877955       0.15894994
C        4.40828800       1.26216960       0.42112982
C        5.18447781      -0.00516000       0.63070977
N        4.40448856      -1.25229943       0.52521980
C        3.14944887      -1.13027954       0.26729989
H        0.63001972      -1.03979957      -0.31350988
H        0.73996973       0.54945976      -1.07737958
H        0.45205984       0.41992983       0.67259979
H        2.50944901       2.12662911       0.00643000
H        4.93782806       2.20538902       0.49122983
H        5.99705791      -0.04614998      -0.10322996
H        5.64489794       0.02583999       1.62457943
H        2.53838921      -2.04470921       0.18471994
