10
Properties=species:S:1:pos:R:3 pbc="F F F"
N        1.03625965       0.07822997      -0.21235992
C        2.18857932       0.04902998      -0.08663996
C        3.62036872       0.02391999       0.02248999
N        4.43857861      -0.70578974      -0.95615965
C        4.42377853       0.76088971      -1.02379954
C        5.55677795       1.52386940      -0.57998979
N        6.45187759       2.16112924      -0.20850992
H        4.00568819      -0.00589000       1.03664958
H        3.85355854      -1.10808969      -1.69245934
H        3.90234852       1.17453957      -1.88124931
