19
Properties=species:S:1:pos:R:3 pbc="F F F"
N        0.90990967       2.27768898      -0.61312979
C        2.36184907       2.31366920      -0.72901970
C        2.99472904       1.30259943       0.22412992
C        4.51029825       1.33351946       0.08960997
C        5.26307821       2.52223897       0.72674972
N        6.30961800       1.57116938       1.16808963
C        5.30294800       0.48482981       1.10691965
H        0.50261980       2.98242879      -1.22586954
H        0.63313979       2.53010917       0.33494988
H        2.72091913       3.32501864      -0.50938982
H        2.64522910       2.08479929      -1.76212943
H        2.63033891       0.29428989      -0.00981000
H        2.69640899       1.51975942       1.25787950
H        4.83259821       1.13534963      -0.94340962
H        4.74477816       3.01001906       1.56090951
H        5.60781813       3.29220891       0.03062999
H        7.05875731       1.45647955       0.48442981
H        5.68185806      -0.47024983       0.73185968
H        4.79847813       0.31009990       2.06489921
