12
Properties=species:S:1:pos:R:3 pbc="F F F"
N        1.01200962      -0.06758998      -0.11593995
C        2.46936893      -0.02587999      -0.01280999
C        3.28789878      -0.70564973      -1.07138956
C        3.26368880       0.79316968      -0.99809963
O        4.44715834       1.43067956      -0.49266982
H        0.59616977       0.71880978       0.38378987
H        0.64043975      -0.91014963       0.32137987
H        2.85025907      -0.06897997       1.00477958
H        2.77124906      -1.17127955      -1.90345919
H        4.18549824      -1.22827959      -0.76667970
H        2.71426916       1.31906950      -1.77302933
H        4.95504808       0.85410964       0.10194996
