15
Properties=species:S:1:pos:R:3 pbc="F F F"
C        0.98537964      -0.18700993       0.16860995
C        2.45120907      -0.28789991      -0.16129993
C        2.99679875      -1.46926939      -0.49744982
C        3.28393865       0.90719962      -0.11657995
C        2.86391902       2.13783932       0.21088992
C        3.81512856       3.26663899       0.21625993
O        3.45688891       4.39876842       0.51569980
H        0.47926983       0.49806979      -0.52003980
H        0.84236968       0.17125994       1.19368947
H        0.48081979      -1.15643954       0.09036996
H        2.39971900      -2.37554908      -0.53905982
H        4.04960823      -1.57633936      -0.74074972
H        4.33235836       0.75902975      -0.37546986
H        1.84501934       2.38226914       0.48305982
H        4.85634851       3.03479886      -0.06205998
