19
Properties=species:S:1:pos:R:3 pbc="F F F"
C        1.80339932      -0.75915974       0.24629991
N        3.16731882      -0.56364983      -0.26512992
C        3.37806869      -1.49651945      -1.38250947
N        3.46118879       0.73162967      -0.55382979
C        4.58901834       1.17260957      -0.07576997
C        5.56148815       0.35879984       0.74718970
C        4.98269796       2.59215903      -0.39781985
H        1.63797939      -0.12389996       1.12363958
H        1.64886940      -1.79451942       0.56893981
H        1.04792953      -0.50408983      -0.50545979
H        3.22787881      -2.53299904      -1.06142950
H        4.40859842      -1.42260945      -1.74702942
H        2.70556903      -1.28222954      -2.22066927
H        6.07734776      -0.35337988       0.09749997
H        5.03899813      -0.17779994       1.54327941
H        6.30518723       1.01495957       1.20773959
H        4.19812822       3.09215879      -0.97236961
H        5.90616798       2.58509898      -0.98313963
H        5.14933825       3.14237881       0.53214979
