19
Properties=species:S:1:pos:R:3 pbc="F F F"
C        1.92982924       3.58427882      -0.12235995
C        2.67768884       2.26836920      -0.20272993
O        4.07672834       2.54135919      -0.16494994
C        4.84576797       1.33912945      -0.20841993
C        6.32946777       1.68773937      -0.23253991
O        7.09727764       0.48499984      -0.27948990
C        8.49027634       0.76045972      -0.35043988
H        0.84949970       3.42220879      -0.16777994
H        2.22357917       4.24625826      -0.94337964
H        2.16954923       4.10663843       0.80957967
H        2.42801929       1.75550938      -1.13820958
H        2.40012908       1.62949944       0.64310974
H        4.58798838       0.75800973      -1.10257959
H        4.62200832       0.72030973       0.66851974
H        6.59114742       2.26491904       0.66045976
H        6.54912758       2.30968928      -1.10902953
H        9.02888680      -0.19072993      -0.36064985
H        8.81341648       1.33620942       0.52237982
H        8.72531605       1.30488944      -1.26962948
