17
Properties=species:S:1:pos:R:3 pbc="F F F"
C        1.22338951       0.01421999      -1.03216958
C        2.07768917       0.28629991      -0.03695998
C        3.33358860       1.13753963      -0.08797997
C        3.87870836       1.51853943      -1.48123944
C        3.46058869       2.94407868      -1.64537930
C        3.04358888       3.47330880      -0.49147981
C        3.10710883       2.48553920       0.62986976
H        0.35435987      -0.61291975      -0.85491967
H        1.34166956       0.41408986      -2.03313923
H        1.85981929      -0.14277995       0.94131964
H        4.10546827       0.56322980       0.44163984
H        3.50429869       0.88645965      -2.29000926
H        4.97368860       1.46288943      -1.49545944
H        3.52520871       3.48125863      -2.58145905
H        2.72108912       4.49759817      -0.36509988
H        3.94946837       2.72835898       1.28724957
H        2.18729925       2.50460911       1.22372949
