16
Properties=species:S:1:pos:R:3 pbc="F F F"
N        2.92393899      -1.17594957      -0.54346979
C        2.38380909       0.01742999       0.11885995
C        3.35505867       1.21393955       0.07580997
C        2.82126880       2.41355920       0.82352972
C        2.72667909       3.46534872      -0.00551000
C        3.16587877       3.07838893      -1.32220948
C        3.53443861       1.78961933      -1.30851948
H        2.25949931      -1.94214928      -0.44306982
H        3.77755857      -1.47044945      -0.07113998
H        2.16099930      -0.23762991       1.16201949
H        1.43092942       0.27747989      -0.35834989
H        4.32947874       0.92974967       0.49209979
H        2.56872892       2.41903901       1.87295938
H        2.38279915       4.45523834       0.25240991
H        3.18565869       3.73872876      -2.17578912
H        3.90279865       1.22652948      -2.15328932
