18
Properties=species:S:1:pos:R:3 pbc="F F F"
N        0.82271969      -0.31202987       0.07818997
C        2.21086931      -0.40440986      -0.36308986
C        2.53860903      -0.05717998      -1.78678930
C        2.95592904       0.86772966      -0.67028975
C        4.40451860       1.01078963      -0.30892989
C        4.64420843       1.15866959       1.16779959
C        5.40199804       0.32689989       1.89452922
H        0.78015971      -0.12151995       1.07914960
H        0.34010985      -1.20007956      -0.06087998
H        2.78134894      -1.21429956       0.08730997
H        1.73348939       0.26840991      -2.43623924
H        3.29483867      -0.64917976      -2.28779912
H        2.41915917       1.80575931      -0.57267982
H        4.79921818       1.90254927      -0.81028968
H        4.97891808       0.16143993      -0.70051974
H        4.16174841       2.00140929       1.65909934
H        5.90308809      -0.52621979       1.44743943
H        5.53625774       0.48553982       2.96031880
