19
Properties=species:S:1:pos:R:3 pbc="F F F"
C        3.12188888      -1.33990955      -0.67963976
C        2.52321911      -0.22531991       0.17846993
N        2.37973905      -0.67055970       1.58282948
C        3.31708884       1.12264955       0.06568997
N        2.72927904       2.11774921       0.97742963
C        4.77802801       1.00231969       0.41805986
C        5.78420782       1.09050965      -0.46353981
H        3.21718884      -1.01329958      -1.72022939
H        2.47702909      -2.22539926      -0.66934973
H        4.11087847      -1.64666939      -0.32541987
H        1.50592947      -0.03555999      -0.18909994
H        3.31102872      -0.85528970       1.96035933
H        1.89583933      -1.56818950       1.59996951
H        3.21613884       1.50024939      -0.95979959
H        2.52346897       1.60816944       1.84430921
H        1.80468929       2.36127901       0.62544978
H        5.01959801       0.85394967       1.46777940
H        5.60556793       1.25280952      -1.51986945
H        6.81575775       1.01077962      -0.13279995
