13
Properties=species:S:1:pos:R:3 pbc="F F F"
C        1.06608963       0.36062986      -0.30057991
C        2.36800909       0.29485989       0.02707999
C        3.24436879      -0.92480963       0.14618994
C        2.54776907      -2.19178915      -0.13596995
C        1.99690926      -3.23548889      -0.36237988
C        3.05034876       1.58681941       0.31333989
O        4.23450804       1.65165937       0.62043977
H        0.52342981       1.29934955      -0.35853985
H        0.49103981      -0.53327978      -0.52514982
H        3.65900874      -0.97189963       1.16070950
H        4.09028864      -0.82845968      -0.54550976
H        1.51133943      -4.16319847      -0.56245983
H        2.42685890       2.49344897       0.23352991
