12
Properties=species:S:1:pos:R:3 pbc="F F F"
N        0.99999964       0.00000000       0.00000000
C        2.15100908       0.00000000       0.00000000
C        3.59500861       0.00000000       0.00000000
C        4.15632820      -1.19934952      -0.75226969
C        4.51115799      -0.54614979      -2.04840922
N        4.50032854       0.74547970      -2.04224920
N        4.17511845       1.10725963      -0.77587968
H        3.97102833       0.02218999       1.02797961
H        3.44809866      -2.01537919      -0.91994965
H        5.07749796      -1.58791935      -0.30656990
H        4.78435802      -1.14868963      -2.92623901
H        3.61785865       1.96411932      -0.74164969
