15
Properties=species:S:1:pos:R:3 pbc="F F F"
C       -0.78043973      -0.98863965      -0.18951993
C       -1.17391956       0.40653986       0.26331988
C       -0.00316000       1.25469959      -0.20370993
C        1.22001946       0.38627985       0.06684997
C        0.72094971      -1.05856967       0.06870998
H       -1.32991946      -1.77136934       0.34188986
H       -0.97849965      -1.10533965      -1.26157951
H       -1.25932956       0.44351983       1.35531950
H       -2.12357926       0.73277968      -0.16899994
H       -0.08861997       1.45273948      -1.27951944
H        0.04829998       2.21784925       0.31309989
H        1.99842930       0.54833978      -0.68500972
H        1.65147936       0.63046980       1.04417968
H        1.22695947      -1.66615939      -0.68851972
H        0.91949964      -1.51858950       1.04423964
