18
Properties=species:S:1:pos:R:3 pbc="F F F"
C        0.77163970       0.01394000      -0.04906998
N        2.20312929       0.04532998       0.19097993
C        3.03467894      -0.82798970      -0.61162978
C        2.65872908      -1.46313941      -1.91669929
C        2.92681885      -0.37471986      -2.96064878
C        2.66577911       0.95014966      -2.23745918
C        3.03676891       0.67648977      -0.81203973
H        0.32375988       0.94400966       0.31635988
H        0.32673988      -0.80602968       0.52449977
H        0.45704982      -0.11004996      -1.08856952
H        3.89388847      -1.27839947      -0.13233995
H        3.27178860      -2.34727907      -2.11980915
H        1.61218929      -1.78187931      -1.93376923
H        3.98139858      -0.41777986      -3.26229882
H        2.31704926      -0.49267980      -3.86107850
H        3.28488874       1.74687934      -2.66397905
H        1.62121940       1.26098955      -2.33965921
H        3.89837837       1.23387957      -0.46453983
