16
Properties=species:S:1:pos:R:3 pbc="F F F"
C        1.00172961      -0.20789993      -0.19677992
C        2.49202919       0.05192998       0.02921999
C        3.30617857      -0.79725969      -0.86634970
N        3.93447852      -1.47501945      -1.56961942
C        2.84584904       1.52651942      -0.13623996
C        2.66132903       2.15290928      -1.49545944
C        3.30745888       2.25666904       0.89542967
H        0.38820985       0.42969984       0.44930986
H        0.75343972      -1.25118947       0.03108999
H        0.70464975      -0.02683999      -1.23603952
H        2.71679902      -0.25346991       1.06031954
H        1.61367941       2.10169935      -1.80681932
H        3.27567887       1.64626932      -2.24592924
H        2.94982886       3.20985889      -1.49966943
H        3.45026875       1.83077943       1.88459921
H        3.56134868       3.30726886       0.78066969
