17
Properties=species:S:1:pos:R:3 pbc="F F F"
N        1.05807960       0.23585992      -0.35818988
C        2.47817922      -0.00969000      -0.09138997
C        3.19975877      -1.03704965      -0.90668970
C        3.51823854       0.42184982      -1.10076964
N        4.80744791       0.93797964      -0.60187978
C        5.81142759       0.90661967      -1.66169941
C        5.16852808       2.19954920      -1.23913956
H        0.79667968       1.16301954      -0.02258999
H        0.48283982      -0.42269984       0.16663994
H        2.76089883       0.06195998       0.95753968
H        2.66157913      -1.54093945      -1.70035934
H        3.93165851      -1.65866935      -0.40393987
H        3.13058901       0.86594969      -2.01775932
H        5.54313803       0.47792983      -2.61957908
H        6.82600737       0.71119976      -1.33721960
H        5.75048780       2.88103890      -0.63122976
H        4.46191835       2.67518902      -1.90773928
