13
Properties=species:S:1:pos:R:3 pbc="F F F"
C        0.99970967      -0.06128998      -0.00839000
C        2.51999903       0.00000000       0.00000000
O        3.01665878      -0.67571980      -1.15055954
C        3.00201893       1.36116946       0.00000000
C        3.39929867       2.48306894       0.00000000
C        3.90478849       3.83406854      -0.00150000
O        3.14210892       4.78773832      -0.02650999
H        0.57352978       0.42721984       0.87411964
H        0.65942979      -1.10232961      -0.03073999
H        0.58675975       0.42359984      -0.90094966
H        2.89611888      -0.53614980       0.87737966
H        2.69958901      -0.18567993      -1.92841935
H        5.00368786       3.93059874       0.01826999
