16
Properties=species:S:1:pos:R:3 pbc="F F F"
C        1.00095963      -0.05371998       0.00237000
C        2.51999903       0.00000000       0.00000000
C        3.00201893       1.36116946       0.00000000
C        3.39929867       2.48306894       0.00000000
C        3.88131857       3.84423852       0.00000000
C        2.74506879       4.83845806      -0.18115994
H        0.65725970      -1.09300959       0.00223000
H        0.58555979       0.44191983      -0.88200969
H        0.58836979       0.44074982       0.88869965
H        2.89592886      -0.53294981      -0.88055962
H        2.89871907      -0.53395981       0.87874967
H        4.61281824       3.98542833      -0.80353969
H        4.39936829       4.06015825       0.94112962
H        2.22815919       4.67862844      -1.13338947
H        3.13186884       5.86232805      -0.17190993
H        2.00650930       4.74608803       0.62168980
