13
Properties=species:S:1:pos:R:3 pbc="F F F"
C        0.92879963       0.13062996       0.14264995
C        2.41157913      -0.10605996       0.03771999
C        2.91916895      -1.35019946      -0.00682000
C        3.28953862       1.12428951      -0.05410998
C        3.29359865       1.88718927       1.20518947
N        3.30003881       2.50341916       2.18824935
H        0.68472975       0.65667975       1.07088959
H        0.36257988      -0.80693966       0.13543996
H        0.58038980       0.73344970      -0.70234972
H        2.27987909      -2.22730923       0.04900998
H        3.98674846      -1.53277946      -0.09255996
H        2.93522906       1.75837934      -0.87549967
H        4.31985807       0.84410971      -0.30542991
