15
Properties=species:S:1:pos:R:3 pbc="F F F"
C        0.93793964       0.14355995       0.18814993
C        2.39826918      -0.13256995      -0.12817995
O        2.54610896      -1.50056946      -0.57185978
C        2.69298887      -1.50304937      -2.00673938
C        3.15231895      -0.14409995      -2.38864923
O        2.15538907       0.88161969      -2.40558887
C        2.94331908       0.72982973      -1.21881950
H        0.79031968       1.18220961       0.49890980
H        0.59133977      -0.51799983       0.98868966
H        0.29590988      -0.05197998      -0.67779976
H        2.99882889      -0.02107999       0.78090966
H        3.41999865      -2.27427912      -2.27531910
H        1.72669923      -1.75003934      -2.45842910
H        4.03578854      -0.06903998      -2.99706888
H        3.66829848       1.47543943      -0.94047970
