13
Properties=species:S:1:pos:R:3 pbc="F F F"
C        1.08416963       0.06401998       0.20209993
C        2.32757902      -0.12284995      -0.25007990
O        2.73112893      -1.40214944      -0.63638979
C        4.05444860      -1.25012958      -1.20765960
C        4.53250837       0.13466994      -0.93104970
O        3.95706844       1.19872952      -1.69011939
C        3.36183858       0.89754969      -0.41685987
H        0.73227972       1.04644954       0.49549982
H        0.39235985      -0.76835972       0.27503991
H        4.70860815      -1.99514925      -0.74461973
H        3.99423862      -1.44895935      -2.28276920
H        5.50386810       0.23912990      -0.47895980
H        3.51630878       1.58940935       0.40122986
