17
Properties=species:S:1:pos:R:3 pbc="F F F"
C        1.06685960      -0.21601993       0.15300994
O        2.48180914      -0.09392997       0.08167997
C        2.89205885       1.27654958       0.08753997
C        4.41400862       1.33854949       0.00000000
C        4.89601851       2.69972897       0.00000000
C        5.29330778       3.82161856       0.00000000
C        5.78574800       5.20028782       0.00008000
H        0.81323969      -1.27913940       0.14998995
H        0.59797978       0.25790989      -0.71425974
H        0.68993974       0.23104991       1.07752955
H        2.54280901       1.75587940       1.01069963
H        2.43914914       1.79515934      -0.76685971
H        4.74453831       0.81382972      -0.90455961
H        4.84640789       0.77751976       0.83730972
H        4.99232817       5.89582777      -0.28771991
H        6.61305714       5.31712770      -0.70561969
H        6.14344788       5.48466778       0.99370962
