17

C    0.77469600   1.50827800  -0.97516400
C    2.26160200   1.46829700  -1.04858400
C    3.08812000   1.39400400   0.00442000
C    4.58746100   1.32056000  -0.13097600
C    5.12374000   2.74418000  -0.11190100
N    5.50933500   3.32252100  -1.22207400
N    5.24510400   3.36626700   1.05015000
H    0.39053400   2.40623500  -1.48428500
H    0.40884000   1.50203300   0.06008700
H    0.34674500   0.64313800  -1.50547100
H    2.69506600   1.47469500  -2.05851600
H    2.67898800   1.37360700   1.02059800
H    4.90200900   0.85122000  -1.07538000
H    5.04849100   0.75538300   0.69121300
H    5.49547500   2.81961000  -2.10416400
H    5.82064500   4.29162000  -1.23000600
H    4.45419700   3.34223900   1.70264600