15
Properties=species:S:1:pos:R:3 pbc="F F F"
O        0.98232967      -0.01863999       0.02430999
C        2.42483902       0.01623999      -0.00913000
C        3.11541867       1.04358959      -0.97813964
C        2.66170907       0.04341998      -2.09931922
C        3.18554878      -0.95071965      -1.00155962
O        4.60565805      -0.68501979      -0.84392965
C        4.61784840       0.75447977      -0.81836969
H        0.72662973       0.74491972       0.56969976
H        2.81947875       0.01092000       1.01292956
H        2.75700903       2.07027912      -1.01077962
H        3.23388886       0.07297997      -3.03134871
H        1.59402943       0.00964000      -2.34212923
H        2.91376901      -2.00373912      -1.05269957
H        5.21131802       1.13641965      -1.65389931
H        5.01542807       1.10693967       0.13758995
