19
Properties=species:S:1:pos:R:3 pbc="F F F"
C        1.96243930       0.30467987       0.91201967
O        3.36394858       0.53360975       0.95839959
C        3.81779838       1.24299955      -0.19249992
C        5.31266832       1.43691945      -0.07982997
C        6.10280752       0.15579994      -0.05528998
C        5.84242773       2.67628884      -0.02498999
C        7.28135729       3.06776881       0.09079997
H        1.67226946      -0.23633991       1.81612933
H        1.70274937      -0.30487987       0.04148998
H        1.41915941       1.25390947       0.88362968
H        3.29240870       2.20316911      -0.25536990
H        3.58948874       0.66824979      -1.09825957
H        5.85683775      -0.45287982      -0.93237966
H        5.86424780      -0.42272985       0.84281963
H        7.18339729       0.30815989      -0.06769998
H        5.16314840       3.52824855      -0.05137998
H        7.96731710       2.22225928       0.15408994
H        7.42289734       3.67774868       0.98855966
H        7.56846714       3.67003870      -0.77678972
