21
Properties=species:S:1:pos:R:3 pbc="F F F"
C        1.23519945      -0.29279989       1.14536953
C        2.70657897      -0.34640989       0.70672971
C        2.86835885      -1.48534954      -0.30785987
C        3.19529867       1.01799965       0.13462995
N        3.04276872       2.09788918       1.13482952
C        4.67390823       1.00389957      -0.34020987
N        5.62478781       0.83807969       0.76806974
H        1.09064960       0.39306983       1.98519933
H        0.89209962      -1.27834952       1.47850943
H        0.58886975       0.02910999       0.32215986
H        3.30384874      -0.60399979       1.59147942
H        2.37095904      -1.24666953      -1.25392950
H        2.43447924      -2.41535902       0.07602997
H        3.92238855      -1.69240940      -0.51457983
H        2.57512903       1.28014958      -0.73199975
H        3.45349884       1.77014935       2.00978923
H        2.05319929       2.23814917       1.33213949
H        4.89616823       1.95553923      -0.83879972
H        4.84209824       0.22135992      -1.08474958
H        5.49949789       1.64246941       1.38565946
H        6.57136774       0.92452961       0.39932987
