17
Properties=species:S:1:pos:R:3 pbc="F F F"
C        1.08255970      -0.02653999       0.05001998
C        0.78357971       0.45295981       1.44024944
C        0.01407999      -0.42361984       2.39557910
C        1.47424948      -0.15474993       2.63381910
C        2.41387916       0.45963982      -0.43183985
C        3.59621859      -0.46787980      -0.53693980
O        2.82210898      -0.10069997      -1.68761933
H        1.03527963      -1.12198961       0.00060000
H        0.30303988       0.35114986      -0.62256980
H        0.58083975       1.51811934       1.46588945
H       -0.27043992      -1.42051947       2.07941937
H       -0.70458978       0.05183998       3.05292892
H        1.74140930       0.50353980       3.45334864
H        2.17233920      -0.96930969       2.47544909
H        2.57561922       1.51929939      -0.28511989
H        3.50279880      -1.48421943      -0.17830993
H        4.58945847      -0.04628998      -0.44902983
