15
Properties=species:S:1:pos:R:3 pbc="F F F"
N        1.07757962      -0.08414997       0.20640992
C        2.41712904       0.14695995      -0.31783989
C        2.55970907      -0.60630977      -1.60766935
C        3.47799850      -1.55403948      -1.84548926
C        2.59608889       1.62156940      -0.53251982
C        3.55189872       2.36922908       0.03594999
H        1.00531960       0.38287985       1.10835969
H        0.98093963      -1.07892966       0.40118986
H        3.14561868      -0.21910991       0.41664985
H        1.85381937      -0.35581988      -2.39770913
H        4.20508814      -1.84671926      -1.09527957
H        3.51545858      -2.05728912      -2.80651879
H        1.88414931       2.10507917      -1.19974959
H        4.28744841       1.94241929       0.70991975
H        3.61399865       3.43409872      -0.16781993
