17

C    2.27628100  -0.51619500   1.24713000
C    2.54429900   0.14957500  -0.10953500
C    2.99703900   1.57473200   0.04817100
C    2.09697300   2.62932000   0.05150600
C    4.35692600   1.90323300   0.25309700
N    5.27240800   0.93748400   0.25985800
N    6.49085400   1.24301500   0.46552700
H    1.92638900  -1.54554900   1.09285500
H    1.50425800   0.02167700   1.81661200
H    3.19049100  -0.55571600   1.85713900
H    1.62818900   0.14029300  -0.71799200
H    3.30849300  -0.41817200  -0.65743400
H    1.02799800   2.45456400  -0.09690800
H    2.42226000   3.66326800   0.19736600
H    4.65519600   2.95336100   0.40115900
H    7.17365900   0.48537900   0.45544000
H    6.81563600   2.20234400   0.63745700