19
Properties=species:S:1:pos:R:3 pbc="F F F"
N        2.01182914      -0.28279987      -1.43881953
C        2.35800910       0.08074997      -0.06789998
C        3.09992886       1.41372943      -0.01629999
C        2.28925920       2.60939884      -0.49608982
C        3.02854896       3.76595855       0.14500995
N        3.37951875       3.27616858       1.47895944
C        3.50139880       1.81589925       1.40297949
H        1.55039942      -1.19180954      -1.44135940
H        2.86081910      -0.39139986      -1.99202931
H        2.98268890      -0.70892972       0.36467987
H        1.43858945       0.13165994       0.52614981
H        4.01266861       1.34624946      -0.62628978
H        1.25652957       2.56160903      -0.12894996
H        2.26647925       2.68984890      -1.58710933
H        3.93937850       3.99780869      -0.41955984
H        2.41480923       4.66937828       0.19948992
H        4.24834871       3.70086861       1.79809928
H        4.52581835       1.49506938       1.62088931
H        2.84385896       1.37014949       2.15710926
