17
Properties=species:S:1:pos:R:3 pbc="F F F"
C        1.88247931      -0.18966994       1.33772957
C        2.30336905       0.27496988      -0.04966998
C        2.99381876       1.62243938      -0.02086999
C        2.28916907       2.74974895      -0.22535992
C        4.45693827       1.61038935       0.17020994
C        5.01139832       2.02359915       1.51277936
O        5.12609816       0.67875975       1.03700960
H        1.38768947      -1.16398954       1.27355957
H        1.17941952       0.51543981       1.79376936
H        2.74196911      -0.29357988       2.00707912
H        1.41549957       0.31893986      -0.69321978
H        2.96643877      -0.47131982      -0.50420982
H        1.21545947       2.72837901      -0.38498986
H        2.77236891       3.72186875      -0.23316991
H        5.01184797       1.91354930      -0.71276969
H        4.33062840       2.20063925       2.33561897
H        5.90911770       2.62702918       1.53061950
