21
Properties=species:S:1:pos:R:3 pbc="F F F"
C        2.98790908      -1.00289965      -0.86414969
C        2.48447919      -0.08491997       0.24132991
C        3.01693892       1.35571945       0.13558996
C        2.35771918       2.23053932       1.20787954
C        4.55261803       1.47044945       0.18877994
C        5.20622826       0.92048967       1.45221937
O        6.61575747       1.10612953       1.37831950
H        2.50400901      -1.98190928      -0.78729969
H        4.06741858      -1.16230953      -0.79565972
H        2.75880885      -0.58947974      -1.85162926
H        2.73667884      -0.51995981       1.21500957
H        1.38875949      -0.06272998       0.18985993
H        2.70329905       1.75599933      -0.83786970
H        2.54993916       1.85121930       2.21607924
H        1.27175951       2.25836897       1.06561959
H        2.72523904       3.26043892       1.15240967
H        4.83963823       2.52462912       0.07692997
H        4.99131823       0.97393960      -0.68588972
H        5.01360798      -0.14800994       1.58125949
H        4.85349798       1.44577944       2.34436917
H        6.93521738       0.61030978       0.60513973
