12
Properties=species:S:1:pos:R:3 pbc="F F F"
N        4.83100796      -2.22994924      -0.48339984
C        4.28278828      -1.24085951      -0.26898989
C        3.59500861       0.00000000       0.00000000
N        4.50507832       1.15995967       0.00549000
C        4.57018852       1.87206936      -1.26849949
C        3.81465840       2.44232917      -0.09488997
H        3.12799883      -0.06050998       0.99071968
H        2.76959896       0.12083995      -0.71446973
H        4.01005840       1.49404943      -2.11494923
H        5.53168821       2.30800915      -1.51410949
H        4.26663876       3.26450872       0.44817984
H        2.73190904       2.45488906      -0.13015994
