17
Properties=species:S:1:pos:R:3 pbc="F F F"
C        1.09359968      -0.30175990       0.01610999
O        2.48626924      -0.03633999       0.01751999
C        2.89400887       1.33854949       0.00000000
C        2.39940906       2.04865932      -1.26814950
C        2.39902902       2.08002925       1.25106955
C        4.33800840       1.33854949       0.00000000
C        5.52816820       1.33854949       0.00000000
H        0.96044964      -1.38750947       0.03365999
H        0.61514974       0.07550997      -0.89085966
H        0.60707974       0.10572996       0.90544969
H        2.65793896       1.47409940      -2.16647911
H        2.83474898       3.05059886      -1.36839950
H        1.30976963       2.16463923      -1.26930952
H        2.65777898       1.52742934       2.16208935
H        1.30999959       2.19538927       1.24855959
H        2.83444881       3.08337879       1.32577944
H        6.59343767       1.32733953       0.00015000
