20
Properties=species:S:1:pos:R:3 pbc="F F F"
C        1.66462934      -0.48247984      -1.03953958
N        2.26984906       0.07370997       0.16424994
C        3.13949871       1.22329950      -0.12622996
C        4.35037804       0.91295969      -0.98777962
C        2.27284908       2.47006893      -0.45815983
C        3.12640882       3.25697899       0.55904979
C        3.44695854       1.90871930       1.23934960
H        0.93251961      -1.24440956      -0.75214970
H        2.40683913      -0.96776962      -1.68085945
H        1.12989950       0.27500990      -1.62140942
H        2.73721886      -0.67351979       0.67702973
H        5.02138805       1.77581930      -1.06018960
H        4.06063843       0.64959979      -2.01038933
H        4.93037844       0.08154997      -0.57182974
H        1.21655953       2.41095901      -0.16706993
H        2.32938933       2.83346891      -1.48836935
H        3.99987841       3.74982858       0.11735996
H        2.58471894       3.98097849       1.17323959
H        4.47057819       1.80969942       1.61224937
H        2.75685906       1.67577934       2.06028914
