13
Properties=species:S:1:pos:R:3 pbc="F F F"
C        1.00044966       0.00909000      -0.02584999
C        2.52167892      -0.04049999      -0.05217998
C        3.06904888      -1.24055958      -0.78629971
C        3.34029865      -0.59923977      -2.08992934
N        3.32368875       0.68888974      -2.09401917
O        3.01355886       1.09900963      -0.77273971
H        0.65994978       0.92422968       0.47123984
H        0.58592975      -0.85238969       0.50705981
H        0.58239979       0.02963999      -1.03871965
H        2.90469885      -0.00105000       0.97255963
H        2.37429905      -2.07808924      -0.87470967
H        4.01898861      -1.59069943      -0.37214985
H        3.58412862      -1.20261955      -2.97464895
