13

C    1.00718400  -0.09423300  -0.21793300
C    2.47134100  -0.03384600   0.18057900
C    3.06408900   1.39482400  -0.00407100
C    2.85753400   2.15399100  -1.29028000
O    3.67524600   1.84821600   0.91750800
H    0.67757100  -1.13111400  -0.04502900
H    0.84148400   0.13726300  -1.27806700
H    0.37930300   0.55376400   0.40945200
H    3.12776500  -0.62764500  -0.48292100
H    2.65230800  -0.34095900   1.21859700
H    2.96057400   1.45265600  -2.12960900
H    3.55757600   2.99414100  -1.36195600
H    1.81887300   2.52432700  -1.25323800