19

C    2.01733900  -1.59675100  -0.21454100
C    1.67435600  -0.12339400  -0.18000500
C    2.94465300   0.76242900   0.06448500
C    3.67859200   0.43119700   1.41738000
C    2.81307500   0.46727200   2.65203600
C    3.65672700   1.41332200  -1.04064700
O    2.75183300   2.09748300  -0.12028400
H    1.11041900  -2.14362600  -0.51905000
H    2.31330800  -1.99058800   0.76765400
H    2.80121900  -1.82698400  -0.95030900
H    0.94819100   0.12642600   0.60607700
H    1.27178600   0.22314300  -1.14434400
H    4.51141300   1.14702500   1.47854200
H    4.08887000  -0.57244000   1.21116600
H    2.33316100   1.44740400   2.78767800
H    3.45442900   0.30007300   3.53166600
H    2.04586300  -0.31880400   2.65646300
H    3.25453900   1.36710900  -2.05864700
H    4.69403700   1.74612400  -0.92776400