13
Properties=species:S:1:pos:R:3 pbc="F F F"
C        0.95516968      -0.02902999      -0.00617000
C        2.45601916      -0.04435998      -0.00234000
C        3.13832903      -1.19976950       0.00237000
C        3.17372870       1.18759966      -0.00220000
C        3.77377844       2.22899914      -0.00158000
C        4.53820848       3.55599880      -0.00059000
C        5.13716841       4.59546804       0.00008000
H        0.56392980       0.99415964       0.00967000
H        0.56116980      -0.54663980       0.87491965
H        0.56682980      -0.51784980      -0.90594965
H        2.62540913      -2.15643907       0.00254000
H        4.22427845      -1.22141957       0.00560000
H        5.66887760       5.51815796       0.00073000
