13

C    1.20976300  -0.19869200   0.86656700
C    1.95619200   0.48971400  -0.06309700
C    3.13107300   1.21449800   0.29683000
O    3.97336100   1.63619700  -0.73972600
C    3.26245000   2.68814700  -0.26327300
C    3.90872300   3.63024900   0.75995300
O    3.46575500   4.72077300   0.90828400
H    0.30355500  -0.73313100   0.56985500
H    1.49695200  -0.23181000   1.92229600
H    1.66105800   0.50054400  -1.11810200
H    3.59698100   1.07097600   1.28159300
H    2.51454200   3.14437800  -0.92773500
H    4.80477200   3.22593000   1.28706400