12
Properties=species:S:1:pos:R:3 pbc="F F F"
C        0.96553963      -0.09789997      -0.00157000
C        2.47991896      -0.03309999      -0.01160000
O        2.87346888       1.33621943       0.02716999
C        4.28793812       1.47504950       0.01943999
H        0.61881977      -1.13472950      -0.03126999
H        0.55076981       0.43842983      -0.86150962
H        0.56467974       0.38353986       0.89725971
H        2.86606884      -0.50351983      -0.92215967
H        2.88058901      -0.55816978       0.86223972
H        4.52992868       2.54074907       0.04996998
H        4.71003819       1.04683959      -0.89498967
H        4.72516823       0.99196965       0.89869970
