15
Properties=species:S:1:pos:R:3 pbc="F F F"
C        0.99176961      -0.12138996      -0.07734997
C        2.50310898      -0.01287999       0.07421998
C        3.02738905       1.43281937       0.00000000
C        2.50671911       2.29811907       1.15026963
C        4.47138834       1.43281937       0.00000000
N        5.62239790       1.43281937       0.00000000
H        0.69457972      -1.17430961      -0.11936995
H        0.65293974       0.36262986      -0.99878967
H        0.46882981       0.33463988       0.76818973
H        2.96827888      -0.60853982      -0.72186971
H        2.80257893      -0.47825980       1.02173960
H        2.67905903       1.87892938      -0.94032967
H        2.76687884       1.86734927       2.12326908
H        1.41955936       2.40848899       1.10566950
H        2.93829894       3.30466866       1.10880959
