19
Properties=species:S:1:pos:R:3 pbc="F F F"
O        1.01768959       0.01657999       0.08605997
C        2.44375920       0.01999999       0.03152999
C        2.91627884      -1.33198953      -0.50213981
C        2.54733920      -1.53235948      -1.97306919
C        3.04339886      -0.37920985      -2.83973908
C        2.55403900       0.96917963      -2.31815934
C        2.92555904       1.17345965      -0.84932965
H        0.73633969       0.87888968       0.43696985
H        2.80835891       0.15515995       1.05570960
H        2.46839905      -2.14299917       0.08446997
H        4.00460863      -1.40673947      -0.39103985
H        2.97597909      -2.47450900      -2.33326912
H        1.45833945      -1.62160933      -2.07140923
H        4.13980865      -0.38464987      -2.86079884
H        2.70343900      -0.52055979      -3.87160873
H        2.98624897       1.77594936      -2.92169905
H        1.46489942       1.03357959      -2.43640900
H        4.01449871       1.26565957      -0.76302975
H        2.48739910       2.11748934      -0.50541979
