12

C    2.18705700  -1.42234600   0.47637600
C    3.40402600  -0.86386300   0.36776800
C    3.62056400   0.58757800   0.28350300
O    2.65896300   1.36288200   0.31270300
C    4.98931400   1.11003800   0.16419100
C    5.27363500   2.42064400   0.08555000
H    2.09787600  -2.51039500   0.53427000
H    1.26168800  -0.84109900   0.51050900
H    4.32492500  -1.45129900   0.33405200
H    5.75890100   0.33437100   0.14532200
H    4.50915000   3.20201100   0.10421700
H    6.31537300   2.74070400  -0.00105300