12
Properties=species:S:1:pos:R:3 pbc="F F F"
N        1.08191967       0.07028997       0.10115997
C        2.24219918       0.02223999       0.09345996
C        3.68929863       0.03754999       0.07130998
N        4.28819799      -1.10807955      -0.09688996
C        5.73383760      -0.72186971      -0.09761997
C        5.78161764       0.80960971      -0.24378991
N        4.44475794       1.17442954       0.16756994
H        6.18423748      -1.04127955       0.84897971
H        6.26091766      -1.21479952      -0.92027968
H        5.94742775       1.09480953      -1.28800952
H        6.55090761       1.26412952       0.38585985
H        4.04672861       2.03287911      -0.19693993
