18
Properties=species:S:1:pos:R:3 pbc="F F F"
C        2.47704911       3.22874880       1.63636935
C        2.72554898       1.94908929       1.32759953
C        3.89200854       1.15422952       1.84066939
N        4.67451859       0.61603975       0.72681969
C        5.59591818       1.64743936       0.17393993
C        6.66930771       0.54625976       0.09979996
C        5.86333752      -0.11566996       1.23467958
H        1.60959947       3.73762846       1.22533953
H        3.12804866       3.79538870       2.29386902
H        2.04445934       1.42378950       0.66145980
H        3.48600864       0.31661987       2.42200923
H        4.49790812       1.75145924       2.53583908
H        5.86187792       2.47083902       0.84892964
H        5.29069805       2.06452918      -0.79019970
H        6.66885757      -0.01910999      -0.83980966
H        7.69086695       0.84731966       0.34327987
H        5.78861809      -1.20522952       1.17691958
H        6.20900774       0.16374995       2.23798895
