19
Properties=species:S:1:pos:R:3 pbc="F F F"
C        0.99862963      -0.00415000       0.01091000
C        2.52919888      -0.00225000      -0.04102999
C        3.06383872      -1.23038960      -0.79658973
C        3.33279896      -0.69472975      -2.16446924
C        3.32868862       0.64421976      -2.18348932
C        3.59528875       1.51427937      -3.35787892
C        3.05814886       1.21180952      -0.82339966
H        0.63118976       0.88222963       0.53828984
H        0.63232976      -0.88722962       0.54448980
H        0.55673981      -0.00756000      -0.99182963
H        2.90263891       0.00927000       0.98942959
H        2.34333920      -2.05352926      -0.81910968
H        3.99744844      -1.59353936      -0.35292986
H        3.53585863      -1.32528949      -3.02004886
H        3.56242871       2.57210898      -3.07775879
H        2.84233880       1.35207951      -4.13615847
H        4.58615875       1.31075943      -3.77454877
H        3.99158859       1.58454931      -0.38600987
H        2.33262920       2.03047919      -0.85454965
