13

C    1.16668800   0.30796200   0.06576600
C    2.58823000   0.10439000   0.03111600
C    3.80942900  -0.10314700   0.02441200
C    5.27452000  -0.26623900  -0.02875600
O    5.83212200  -0.97730500  -1.04373200
C    5.29774500   1.21324700  -0.09356200
C    5.24153200   2.43558400  -0.18474200
H    0.88700700   0.94711900   0.91730500
H    0.67953800  -0.67424600   0.21095800
H    0.80161900   0.73544300  -0.87964100
H    5.67569900  -0.62545500   0.93127200
H    5.53161800  -0.67471800  -1.91034300
H    5.21693400   3.51430400  -0.25164200