10
Properties=species:S:1:pos:R:3 pbc="F F F"
C        0.35110986       1.06564951      -0.07344997
C        0.97140962      -0.30039990       0.20012993
O       -0.32476988      -0.94428962       0.13585995
C       -0.98134965       0.34505987       0.11590996
H        0.57486981       1.83887935       0.66405976
H        0.52032977       1.44647944      -1.08440959
H        1.42428946      -0.42224985       1.18866956
H        1.64991939      -0.67102975      -0.57223982
H       -1.68399942       0.43335983      -0.71585977
H       -1.49202943       0.54355979       1.06291962
