12

C    0.83580400   0.16345000  -0.01993900
C    2.28612500  -0.04554000  -0.15807500
N    3.14496700   0.78150100   0.30366400
N    4.42732500   0.76714800   0.27887400
C    5.25440800   1.61542700   0.75333900
C    6.65647500   1.39191200   0.60731700
N    7.79903100   1.24473500   0.50832000
H    0.40536600  -0.70750000   0.50231500
H    0.38569300   0.16679000  -1.02690000
H    0.59035700   1.08906400   0.51241200
H    2.67341800  -0.93990200  -0.67438500
H    4.90533800   2.51994200   1.27522500