17

C    1.19648000  -0.25468700  -0.51764900
C    2.66742700  -0.24749100  -0.08005700
C    3.03166300   1.08401200   0.53633200
O    2.47314600   1.40405800   1.70301400
C    4.76845200   1.07037200   0.75354800
C    5.29271000   1.67453300   1.97116700
O    5.18991500   0.24365400   1.70076400
H    0.96870200  -1.22232300  -0.98459200
H    0.99103100   0.53438000  -1.25458700
H    0.51630500  -0.11786900   0.33466600
H    3.31940600  -0.43007800  -0.94669900
H    2.86781700  -1.05349600   0.64591400
H    2.99604700   1.96247700  -0.13109000
H    2.21497400   0.61702500   2.21182100
H    5.16695500   0.99653000  -0.26889600
H    4.57408700   2.04159200   2.71055900
H    6.32377200   2.03270800   2.03028100