17

C    0.81395900   0.38176200  -0.54552300
C    2.26351200   0.36434100  -0.33119900
C    3.23847100  -0.64209400  -0.81667700
C    4.45844200  -0.39229400   0.09458500
C    4.46148800  -1.28000200   1.29576000
C    4.26905300   1.08873100   0.44297200
O    2.81100200   1.28799300   0.32995200
H    0.37277700   1.34879100  -0.27838100
H    0.38263000  -0.40883400   0.09509000
H    0.58179000   0.10072100  -1.58325000
H    3.43551600  -0.39196700  -1.87806200
H    2.83416000  -1.66424700  -0.80507000
H    5.39518100  -0.51434200  -0.48064900
H    4.17282900  -2.32948400   1.20067100
H    4.98974300  -0.97284400   2.20157600
H    4.53761400   1.37588600   1.46549000
H    4.71671200   1.78999400  -0.27445500