17

C    0.95220700   0.05840900   0.09602000
C    2.42600500   0.03853100  -0.02851900
C    3.16868500   1.21925700  -0.12853400
C    4.57455500   1.20270000  -0.21928900
C    5.28185100   0.02194900  -0.07080500
C    4.60999600  -1.26276700   0.21335700
C    3.11588500  -1.27788000  -0.10938100
H    0.49235600  -0.70312800  -0.55344300
H    0.51613000   1.04327200  -0.10961300
H    0.68912200  -0.23058700   1.13081800
H    2.64407500   2.17772000  -0.14988700
H    5.11159200   2.14097500  -0.37494800
H    6.37529400   0.04477600  -0.10180600
H    5.13891400  -2.08993400  -0.28448800
H    4.77377700  -1.45410000   1.29522600
H    2.57804100  -2.02857900   0.48913500
H    2.96429500  -1.60547300  -1.15959500