19
Properties=species:S:1:pos:R:3 pbc="F F F"
C        1.16945946      -0.43276983      -0.22068991
C        2.66376901      -0.30391988      -0.48869982
O        2.84619904       0.00050000      -1.87191939
C        3.29439878       0.78695971       0.38757983
C        4.78677797       0.84879965       0.21947992
C        5.65791798       1.29948950       1.36351955
C        5.68322754      -0.13766995       0.92114967
H        0.97198963      -0.68777978       0.82489967
H        0.73405969      -1.20987952      -0.85798967
H        0.64597976       0.49937981      -0.45978981
H        3.14890885      -1.26693952      -0.30054986
H        2.45864916       0.87720972      -2.03934932
H        3.04042888       0.60564977       1.43920946
H        2.88535905       1.76773930       0.11654995
H        5.07131767       1.15872955      -0.78091973
H        5.19662809       1.52447939       2.31853914
H        6.51923752       1.91647923       1.13298953
H        6.55770731      -0.49064982       0.38498986
H        5.23494816      -0.87955964       1.57138944
