15
Properties=species:S:1:pos:R:3 pbc="F F F"
C        1.36236954      -0.30475989       1.06506956
C        2.25882912      -0.14085995       0.08312996
C        3.09551883       1.09089959      -0.10267996
C        4.55867815       0.76993972      -0.00576000
C        5.42538786       0.96370959      -1.01025963
C        6.85436726       0.63115978      -0.84781969
O        7.65601730       0.81178975      -1.75519931
H        0.78108972      -1.21875954       1.13865960
H        1.18301952       0.46316984       1.81122935
H        2.39062905      -0.93914962      -0.64545977
H        2.85375881       1.84624934       0.65484977
H        2.85311890       1.53239942      -1.07695949
H        4.89726830       0.37026986       0.94828963
H        5.13557816       1.36395943      -1.97490919
H        7.15412712       0.21702991       0.12920995
