17
Properties=species:S:1:pos:R:3 pbc="F F F"
N        1.07609963       0.20271993       0.23887990
C        2.46651912      -0.08959997      -0.09054996
C        2.71016908      -1.53749943      -0.60413975
N        2.93650889      -1.48143947      -2.06186938
C        3.24854875      -0.08522997      -2.38355923
C        2.15410900       0.92979962      -2.50253892
C        2.92277908       0.79295969      -1.21117961
H        1.00070965       1.15997958       0.57243979
H        0.76303971      -0.40592983       0.98987967
H        3.08452892       0.08456997       0.79851967
H        1.89222920      -2.22206926      -0.35415986
H        3.61852860      -1.92713928      -0.12471996
H        3.68493843      -2.11965942      -2.32208896
H        4.16640854       0.09867996      -2.93290877
H        2.33981919       1.80724931      -3.11074877
H        1.12960958       0.57864976      -2.53841901
H        3.62541866       1.56192935      -0.92308962
