17
Properties=species:S:1:pos:R:3 pbc="F F F"
C        0.88000971      -0.03817999      -0.15755995
C        2.20819902      -0.00902000       0.02846999
C        2.94785905       1.27676952       0.32175988
C        4.33461857       1.29182959      -0.32136989
C        5.14801788       0.05921998       0.07862997
C        4.34168863      -1.20469964       0.01002000
C        3.00136876      -1.22212946      -0.03530999
H        0.28490990       0.86796969      -0.10385996
H        0.34830987      -0.96156967      -0.36517987
H        2.37959909       2.14466906      -0.03435999
H        3.05267882       1.38436949       1.40908945
H        4.87397814       2.20120931      -0.03214999
H        4.22940826       1.32014942      -1.41410947
H        5.53017759       0.17538995       1.09968948
H        6.01657772      -0.02520999      -0.58404976
H        4.88894796      -2.14333916      -0.01552999
H        2.48201919      -2.17395926      -0.11820996
