14
Properties=species:S:1:pos:R:3 pbc="F F F"
O        0.93552965       0.02082999       0.00151000
C        2.37416911       0.03053999       0.00145000
C        3.05214906       1.05846953       0.93119961
C        4.11982822      -0.01208999       1.23971951
C        3.07416892      -1.07785964       0.84772968
O        3.54999852      -2.23203897       0.12688996
H        0.69584978      -0.83135974      -0.40486985
H        2.75009894       0.07784998      -1.02875960
H        2.44619918       1.34491944       1.79844928
H        3.42665887       1.96285927       0.44497985
H        4.99201822       0.02792999       0.57848978
H        4.46155834      -0.04290998       2.27749896
H        2.46196914      -1.40257955       1.69945943
H        4.16579819      -1.89015925      -0.54375982
