19
Properties=species:S:1:pos:R:3 pbc="F F F"
C        2.53470922      -0.52420980       1.44356954
C        2.60473895       0.02045999       0.02477999
C        3.11362863       1.42474949      -0.02456999
C        4.26056862       1.84313929      -0.57529974
C        4.44798851       3.31544876      -0.42129984
C        3.06175876       3.79019856       0.00909000
C        2.34845924       2.56360912       0.57742983
H        2.19060898      -1.56344938       1.43140948
H        1.83607936       0.05192998       2.05919933
H        3.51742864      -0.49887982       1.92643929
H        1.60970938      -0.01943999      -0.43350983
H        3.25004888      -0.63492972      -0.57277977
H        4.98819780       1.20133960      -1.05348957
H        5.20243835       3.52453852       0.34397987
H        4.75279808       3.78795862      -1.35959947
H        2.51200891       4.16526842      -0.86415970
H        3.11296892       4.60977840       0.73315972
H        1.29420960       2.55579901       0.28430989
H        2.41603899       2.53820896       1.67008936
