10

C    1.31308900  -0.29501400  -0.56850400
N    2.52050100  -0.01927700  -0.30911800
N    3.15842900   1.09284500  -0.26169200
C    4.40148500   1.28812300   0.01354600
C    4.95727100   2.57811200   0.02510200
C    5.49056200   3.66572800   0.05011100
H    1.01623900  -1.34866300  -0.54085600
H    0.58745500   0.49410300  -0.81294400
H    5.03921500   0.41944400   0.24457800
H    5.95911200   4.63841500   0.07041900