15
Properties=species:S:1:pos:R:3 pbc="F F F"
C        2.14157939      -0.85259968       1.51600933
C        2.88322878      -0.61374974       0.21486993
C        2.66458917       0.79755968      -0.25038990
N        3.65643859       1.61842942      -0.36213985
O        3.16614866       2.85410881      -0.81055969
C        4.26481819       3.74734855      -0.95195961
H        2.29295921      -1.88038933       1.85898924
H        1.06637955      -0.68757975       1.39122939
H        2.49321914      -0.17247993       2.29844904
H        2.50534916      -1.28787947      -0.56070977
H        3.95393848      -0.80118966       0.34690988
H        1.62824941       1.09568954      -0.49035981
H        3.88045859       4.72084856      -1.26754951
H        4.95707798       3.37689877      -1.71437931
H        4.78424835       3.86642861       0.00428000
