20
Properties=species:S:1:pos:R:3 pbc="F F F"
C        3.44267869      -0.69556975      -0.46773985
C        2.68969917       0.07729997       0.60913980
N        3.14393878       1.47321939       0.74204969
C        2.24317932       2.19307923       1.64867938
C        4.54620838       1.57764935       1.19607961
C        5.63139772       1.75646937       0.16580993
C        5.27601814       2.89020872       1.07710958
H        2.98704886      -1.68193936      -0.60600978
H        4.49053812      -0.85415965      -0.19461994
H        3.40780854      -0.17284994      -1.42918956
H        2.77263880      -0.45470983       1.56534946
H        1.62921941       0.06991997       0.32652986
H        1.21244955       2.16230917       1.27844942
H        2.51871920       3.25138879       1.71051931
H        2.26320910       1.77479935       2.66155910
H        4.79551840       0.97607964       2.06925917
H        5.34396791       1.84039927      -0.87623966
H        6.57197714       1.24465954       0.32765988
H        5.97529745       3.15043879       1.86248934
H        4.75635815       3.73675847       0.64476979
