17
Properties=species:S:1:pos:R:3 pbc="F F F"
C        0.92899966       0.07850997       0.02060999
C        2.44380903      -0.01696999       0.01039000
C        3.10716891       1.34279943      -0.02882999
O        2.49757910       2.40610909      -0.04652998
C        4.60091829       1.31421959      -0.04251998
C        5.37339783       2.36490917      -0.80398971
C        5.38531780       2.37095904       0.69803971
H        0.48365983      -0.92065960       0.04917998
H        0.56119978       0.59182978      -0.87429971
H        0.57577974       0.63582975       0.89493966
H        2.76844883      -0.58472973      -0.86806971
H        2.78335881      -0.54022980       0.91065967
H        5.03150797       0.31642985      -0.04203999
H        4.81908798       3.15145874      -1.30581951
H        6.27616787       2.06042910      -1.31946957
H        6.29627752       2.07053924       1.20153952
H        4.83895826       3.16165876       1.20207953
