21
Properties=species:S:1:pos:R:3 pbc="F F F"
C        0.96795964      -0.01867999      -0.08849997
C        2.48380923       0.03826999       0.01428000
C        2.99578881       1.47794950      -0.04191998
C        4.52337837       1.52870941       0.06643997
C        5.05641842       2.96473885       0.02858999
C        6.56808758       3.00426888       0.20806994
O        4.72822809       3.57626867      -1.21628952
H        0.62429976      -1.05708957      -0.04994998
H        0.62186974       0.41893986      -1.03020966
H        0.49830979       0.52553982       0.73690975
H        2.92167878      -0.54443979      -0.80462968
H        2.79858875      -0.43320984       0.95256960
H        2.55149913       2.05769920       0.77626967
H        2.67137909       1.94225931      -0.98071963
H        4.95243788       0.95503962      -0.76475972
H        4.83907843       1.04474962       0.99849963
H        4.58566856       3.55883884       0.81956965
H        7.07368755       2.44681907      -0.58800983
H        6.86458731       2.58304906       1.17327952
H        6.93214750       4.03562832       0.14983995
H        5.13551807       3.04866886      -1.92461920
