11
Properties=species:S:1:pos:R:3 pbc="F F F"
C        1.39650941      -0.55991977       0.72495967
C        2.28830910      -0.02705999      -0.12479995
C        3.05503893       1.28344953       0.00000000
C        2.69239902       2.07008910       1.15534949
N        2.40332913       2.69710898       2.07626915
C        4.47485828       1.02029967       0.00000000
N        5.60659790       0.81054974       0.00000000
H        0.92304963      -1.51200938       0.50030982
H        1.10935962      -0.08765997       1.66113937
H        2.50065899      -0.58947974      -1.03634965
H        2.81046891       1.86744928      -0.89699966
