15
Properties=species:S:1:pos:R:3 pbc="F F F"
C        0.99868959       0.03434999       0.17143993
C        2.45236921       0.07326997      -0.16739993
C        3.16274881       1.20378959      -0.26995993
C        4.62415791       1.33627951      -0.61454976
C        4.79875803       2.82238889      -0.64077979
C        3.62716842       3.38161874      -0.34129986
O        2.61358881       2.47134900      -0.10151996
H        0.70940971      -0.98410964       0.44979984
H        0.39418983       0.33236989      -0.69052970
H        0.76720971       0.68594974       1.02012956
H        2.94330883      -0.87984967      -0.33803988
H        4.84789801       0.89993966      -1.59225941
H        5.25853825       0.88711971       0.15572995
H        5.71629763       3.34149885      -0.86471969
H        3.35284877       4.41807795      -0.26264989
