14
Properties=species:S:1:pos:R:3 pbc="F F F"
C        1.14781964      -0.02296999      -0.06243998
N        2.48223925      -0.03053999       0.51782978
C        3.29353857      -1.16794956       0.08418997
C        4.68369818      -0.68839973       0.45249981
C        4.43059826       0.78131974       0.49326983
N        3.18565869       1.13062954       0.50595981
H        0.63747972      -0.97550964       0.11712996
H        1.18090951       0.15983994      -1.14206958
H        0.53823978       0.76235974       0.39761984
H        3.22780895      -1.31979954      -1.00019956
H        3.02735901      -2.09775925       0.59537977
H        5.43674803      -0.93350965      -0.29988989
H        5.00981808      -1.02141964       1.44220936
H        5.26336813       1.49581945       0.53275979
