15
Properties=species:S:1:pos:R:3 pbc="F F F"
O        0.98759961       0.18856993      -0.70643973
C        2.14171910       0.07210997       0.11925995
C        2.47780895      -1.33004951       0.77947974
C        3.85713840      -0.56051975       0.94251966
C        3.55687857      -0.14347994      -0.56114978
C        3.52462864       0.65460974       1.75130928
C        2.37783909       1.07806957       1.19655955
H        0.23830990       0.10190997      -0.09388996
H        2.46901894      -2.20605922       0.12093996
H        1.95007932      -1.57861948       1.70632935
H        4.76284838      -1.11364961       1.18235958
H        4.07126856       0.75168973      -0.92633969
H        3.62991858      -0.92919964      -1.32159948
H        4.08494854       1.08427954       2.56567907
H        1.77948940       1.93802929       1.44642937
