17
Properties=species:S:1:pos:R:3 pbc="F F F"
C        1.15251958      -0.01392999       0.16441993
N        2.59399891      -0.07337997       0.23814991
C        3.34005880       1.17354953       0.09681996
C        4.48077822       0.79765970      -0.84815967
C        4.73427820      -0.68121970      -0.57607979
C        3.34968877      -1.13878953      -0.18565993
N        3.02326894      -2.37644911      -0.26115990
H        0.69095975      -0.94825959       0.49761981
H        0.82875967       0.18779992      -0.86285967
H        0.76945972       0.78477967       0.81019974
H        3.72843862       1.47710943       1.07542968
H        2.73730898       1.99036932      -0.31386986
H        4.15230846       0.92642963      -1.88753927
H        5.37142801       1.41429949      -0.69893974
H        5.10770798      -1.21277952      -1.45460951
H        5.41181803      -0.82971966       0.27013987
H        2.06854916      -2.49348903       0.07967997
