18
Properties=species:S:1:pos:R:3 pbc="F F F"
C        1.00222957      -0.02809999       0.01962999
N        2.45822906      -0.00428000       0.03172999
C        2.96324897       1.36844945      -0.00821000
C        4.49401808       1.36281943      -0.01127000
C        5.04101801       2.78993893      -0.01044000
N        6.49972773       2.78112912      -0.03456999
H        0.65358979      -1.06494963       0.06071998
H        0.60000980       0.42672986      -0.89175969
H        0.59051973       0.49175981       0.89113963
H        2.81146884      -0.52089983      -0.77368975
H        2.60446882       1.92157924       0.86798972
H        2.59837914       1.88120925      -0.90647966
H        4.86112785       0.82557970      -0.89552963
H        4.86416817       0.82424974       0.87112963
H        4.69741821       3.32557869       0.88132972
H        4.67515850       3.33413887      -0.88764966
H        6.85279703       2.28567910       0.78388971
H        6.84606743       3.73674870       0.03939999
