17
Properties=species:S:1:pos:R:3 pbc="F F F"
N        0.95558965      -0.04060999       0.21009992
C        2.41041899      -0.12854995       0.10974996
C        3.03089881       1.27138948       0.12339995
C        4.55931807       1.23197949      -0.03954998
N        5.08688831       2.58869886      -0.18726993
C        5.21773815       0.60430980       1.11691964
C        5.75779772       0.09478997       2.06302929
H        0.55855978      -0.97964960       0.18977994
H        0.57892978       0.44504982      -0.60287976
H        2.67591906      -0.65262979      -0.81499970
H        2.78083897      -0.72438973       0.94986963
H        2.75987887       1.78348935       1.05716956
H        2.59567904       1.85771930      -0.69763970
H        4.81228828       0.67212975      -0.94740963
H        4.88852787       3.11229897       0.66472971
H        4.58864784       3.06772900      -0.93407965
H        6.24143744      -0.34959987       2.90102887
