19

N    2.34932400   2.05781400   2.59262700
C    3.47296400   1.95973600   1.78033400
C    3.17870900   1.84660500   0.26482300
C    4.46530000   2.00069800  -0.53051500
C    5.19996200   3.26686500  -0.17219500
C    6.26931000   3.24483900   0.92411400
N    6.59843200   3.35643500  -0.46995900
H    2.28669600   1.58544900   3.49303800
H    1.55700800   2.64171100   2.32585300
H    4.14390200   1.17220200   2.15303600
H    4.07412700   2.92485400   1.84761000
H    2.45686000   2.63162500  -0.01560400
H    2.70214000   0.87357600   0.07381900
H    4.21193700   2.03002300  -1.60291400
H    5.13197500   1.13557000  -0.39117300
H    4.60977000   4.18880100  -0.27189000
H    6.50835400   2.28107400   1.38604400
H    6.39609100   4.11830900   1.57285500
H    6.90005800   4.28945500  -0.74694700