13
Properties=species:S:1:pos:R:3 pbc="F F F"
C        0.99902964       0.02183999       0.10212996
C        2.47322917       0.02466999      -0.05009998
C        3.29290891      -1.00203967      -0.22027992
O        4.63374805      -0.70009971      -0.33450988
C        4.66137838       0.67292976      -0.22421992
O        5.69200802       1.33254957      -0.27776992
C        3.28200889       1.26412952      -0.03083999
H        0.59420979      -0.99369961       0.05820998
H        0.53223979       0.60645980      -0.69642973
H        0.71399975       0.45817983       1.06395960
H        3.06223893      -2.05279922      -0.28366989
H        3.03422880       1.92546928      -0.86457968
H        3.22187877       1.77517927       0.93300968
