14
Properties=species:S:1:pos:R:3 pbc="F F F"
C        0.88486964      -0.20198993      -0.11696995
C        2.37543917      -0.02865999       0.12916996
C        2.76812887       1.41944957       0.11537996
C        3.29774880       2.05903935       1.16736960
C        3.65691853       3.43143868       1.09570968
C        3.96074843       4.59163809       1.03780961
H        0.62276977      -1.26486945      -0.11568996
H        0.59083974       0.21684992      -1.08540964
H        0.29509988       0.29307988       0.66197979
H        2.93718886      -0.55283982      -0.65223980
H        2.64043903      -0.49896979       1.08330953
H        2.61298919       1.95667934      -0.81899971
H        3.46593881       1.54212940       2.10821915
H        4.23140860       5.61972809       0.98720962
