17
Properties=species:S:1:pos:R:3 pbc="F F F"
C        1.00105965      -0.05429998       0.00266000
C        2.51999903       0.00000000       0.00000000
C        3.00201893       1.36116946       0.00000000
C        3.39929867       2.48306894       0.00000000
C        3.88131857       3.84423852       0.00000000
C        5.00831842       4.02891827      -1.00894964
O        2.80712891       4.71541834      -0.33961987
H        0.65778977      -1.09376955       0.00219000
H        0.58520973       0.44147986      -0.88142967
H        0.58841980       0.43956983       0.88933963
H        2.89591885      -0.53274983      -0.88069969
H        2.89909887      -0.53400981       0.87855965
H        4.23274851       4.12349844       0.99889958
H        4.66252804       3.82622862      -2.02807927
H        5.85340786       3.36675858      -0.79327971
H        5.36662817       5.06407785      -0.99859965
H        3.17255902       5.61181784      -0.40576982
