17
Properties=species:S:1:pos:R:3 pbc="F F F"
C        1.14772964       0.13485995       0.11088996
C        2.64864898      -0.07796998      -0.08756997
C        2.90863895      -0.84439969      -1.38474941
C        3.36428881       1.24796951      -0.10547996
C        3.77796841       1.90716922       1.18638957
N        4.76677847       1.30239952       0.29979989
H        0.95085967       0.66091973       1.05120957
H        0.61763972      -0.82273972       0.14207995
H        0.72023970       0.73586977      -0.69941974
H        3.01652884      -0.68963975       0.74683970
H        2.55282903      -0.28416988      -2.25661922
H        2.40239906      -1.81527925      -1.37325954
H        3.98022842      -1.02411962      -1.52255940
H        3.07319903       1.88304925      -0.93491960
H        3.60113859       1.38777947       2.11998916
H        3.77128863       2.98806906       1.24342954
H        5.27033806       2.01650929      -0.22955991
