13
Properties=species:S:1:pos:R:3 pbc="F F F"
C        2.70823884      -1.16966963       0.30693987
C        2.24535918       0.07873997       0.15756994
N        2.99911880       1.25079954       0.09258997
C        2.49493909       2.52564907      -0.06188998
C        3.57679868       3.37163877      -0.07470997
N        4.73979807       2.67064905       0.06626997
C        4.36803818       1.41294944       0.16359994
H        2.01775932      -2.00800920       0.34382987
H        3.76380873      -1.40394938       0.39630985
H        1.17219961       0.23227991       0.07488997
H        1.43428946       2.71341896      -0.14706995
H        3.57692862       4.44932842      -0.17826994
H        5.04216814       0.57677978       0.28661990
