17
Properties=species:S:1:pos:R:3 pbc="F F F"
C        1.02971959      -0.12127995      -0.08503997
C        2.51909900       0.08323997      -0.34227988
C        2.95489907      -0.58250982      -1.62238932
C        3.87860847      -1.54991937      -1.69737935
C        2.83023906       1.57702935      -0.43988985
C        3.92708850       2.09690928       0.45333982
O        2.23571897       2.32733893      -1.21576953
H        0.72232974       0.39751986       0.82913971
H        0.79437971      -1.18467951       0.03283999
H        0.41702983       0.27125990      -0.90539962
H        3.07296872      -0.32835987       0.51001978
H        2.48076916      -0.23502992      -2.54084921
H        4.38370800      -1.93442929      -0.81675971
H        4.14598846      -1.98420930      -2.65615892
H        3.66725874       1.90911925       1.49758947
H        4.04030848       3.17461872       0.30821988
H        4.86945820       1.60408938       0.20249993
