17
Properties=species:S:1:pos:R:3 pbc="F F F"
C        1.05911958       0.03174999      -0.29900989
O        2.47304893       0.15791994      -0.23030992
C        3.00495911       1.41722953      -0.06618997
C        2.30686927       2.56006885       0.03510999
C        4.45904827       1.44276953      -0.00529000
C        5.26099777       0.36968988      -0.08579997
C        6.75188732       0.43312982      -0.01908999
H        0.82197970      -1.02839959      -0.42924982
H        0.65779978       0.57404977      -1.16133964
H        0.58935976       0.36933985       0.63054979
H        1.22571957       2.59518886      -0.00424000
H        2.80500889       3.51614857       0.16364995
H        4.91643810       2.42364907       0.11665995
H        4.83221817      -0.62335980      -0.20701991
H        7.11860752       1.45793951       0.09632996
H        7.18374729       0.01752999      -0.93455964
H        7.11222696      -0.15593995       0.82975966
