20
Properties=species:S:1:pos:R:3 pbc="F F F"
C        3.33108878      -1.25048947       0.06546997
C        2.57885909      -0.09834997       0.72130972
C        3.08883905       1.28586948       0.28248990
N        2.26003933       2.33189917       0.88037968
C        4.51520872       1.52903938       0.69032973
C        5.51796770       1.76163936      -0.17386992
C        6.93363762       2.00237918       0.23593992
H        2.87754893      -2.20462918       0.35153988
H        4.37916803      -1.27457952       0.37722987
H        3.29482889      -1.17163956      -1.02512968
H        2.64617896      -0.20678991       1.81229925
H        1.51604950      -0.19298993       0.46148980
H        2.99172878       1.36698949      -0.80719972
H        2.22810936       2.20442915       1.88991928
H        1.30114961       2.22380924       0.55588979
H        4.72794819       1.50994945       1.75627935
H        5.31369829       1.79221940      -1.24139953
H        7.06590700       1.95013928       1.32134950
H        7.25604725       2.99229884      -0.10053997
H        7.58608723       1.25314963      -0.22315992
