14
Properties=species:S:1:pos:R:3 pbc="F F F"
C        1.58356941      -0.38100985       0.13145995
N        2.58587885       0.33292988       0.51890981
N        2.76209903       1.41819942      -0.27002990
C        2.81933880       2.72775888       0.44917983
C        3.87156844       3.17497873      -0.57700980
C        4.17213821       1.67322946      -0.69660974
H        1.32387960      -1.29768944       0.68404973
H        0.95137966      -0.13008995      -0.73863971
H        3.19413877       2.66997886       1.47924948
H        1.88421941       3.29494858       0.44095981
H        3.45239854       3.62431860      -1.48479939
H        4.68088818       3.80366874      -0.19936992
H        4.41569805       1.32173955      -1.70309937
H        4.93642807       1.31238949       0.00366000
