18
Properties=species:S:1:pos:R:3 pbc="F F F"
C        0.89171970      -0.34467986       0.07576997
N        2.31355929      -0.02813999      -0.08081997
C        2.90950894      -0.92745966      -1.07369959
C        2.51906919       1.37567949      -0.49349982
C        2.13008928       2.40487909       0.58870977
N        2.46245909       3.77231860       0.17749994
H        0.44849983       0.22271992       0.89973968
H        0.75952971      -1.40161943       0.33412987
H        0.31940988      -0.14191996      -0.83652967
H        2.79861879      -1.97226918      -0.76279974
H        3.98571873      -0.74325973      -1.16419959
H        2.45371914      -0.81116968      -2.06361914
H        1.97434926       1.59015942      -1.42295945
H        3.58618855       1.51961946      -0.71147972
H        2.65223908       2.17840910       1.52524936
H        1.05480957       2.36624908       0.78741968
H        3.47224879       3.84857869       0.05734998
H        2.22157907       4.41073847       0.93503970
