14
Properties=species:S:1:pos:R:3 pbc="F F F"
C        1.03338957       0.01482999      -0.06886998
C        2.52309918       0.00786000      -0.01253999
C        3.31217885      -0.70633972      -1.07677960
C        3.32433867       0.79516965      -1.01353955
N        4.53786850       1.48152947      -0.58562976
H        0.63568974       0.78826970       0.59605980
H        0.63917977      -0.95217967       0.25957990
H        0.65849972       0.21011992      -1.07926965
H        2.88225889      -0.06782997       1.00703967
H        2.77962899      -1.16944957      -1.89968932
H        4.20298862      -1.24606955      -0.77604973
H        2.77973890       1.30903947      -1.80361927
H        5.00814819       0.97678965       0.16444995
H        4.31485844       2.40134907      -0.20676991
