17
Properties=species:S:1:pos:R:3 pbc="F F F"
C        2.34227896      -1.08130956       1.95979929
C        2.91478896      -0.51295978       0.88786966
C        3.56199861       0.85352969       0.77524972
C        3.52920866       1.65786934       2.05444932
C        2.89136887       2.82795906       2.20288920
C        4.99164820       0.70330971       0.30780989
C        5.48184776       1.22197950      -0.82728970
H        1.90815926      -2.07416940       1.89038920
H        2.28280902      -0.58350980       2.92163897
H        2.91314912      -1.08646965      -0.03961999
H        2.99352884       1.39597940       0.00675000
H        4.07451868       1.25198948       2.90469885
H        2.33769894       3.28261876       1.38759947
H        2.91509891       3.35644865       3.15074897
H        5.65893793       0.13136995       0.95065969
H        4.86266804       1.80427933      -1.50232947
H        6.52261782       1.07609963      -1.09938967
