16
Properties=species:S:1:pos:R:3 pbc="F F F"
C        1.23098946      -0.53412986       0.00644000
C        2.74607897      -0.58179981      -0.00525000
O        3.23552871       0.73985976      -0.20999992
C        4.65935850       0.77511966      -0.22800992
C        5.06881809       2.19561911      -0.44662982
C        5.87827778       2.89154887       0.36234987
H        0.80974966      -1.53199947       0.16011994
H        0.84985971      -0.13127995      -0.93828964
H        0.87176967       0.12731995       0.80234969
H        3.09119868      -1.23427951      -0.81416970
H        3.11228895      -0.96954966       0.95112962
H        5.03353834       0.15940994      -1.05310965
H        5.05336809       0.38552988       0.71778971
H        4.65828848       2.68054914      -1.33011949
H        6.30256796       2.45483899       1.26119959
H        6.12502766       3.92560863       0.14240995
