14

C    1.32404300  -1.30748600  -0.32456900
C    2.31129100  -0.19099800  -0.05613700
C    1.72237400   1.24213800   0.11912500
O    0.52104800   1.32751400   0.02138800
C    2.55459000   2.42426000   0.38616700
C    3.88753600   2.34439400   0.49621600
H    1.89803100  -2.23957400  -0.42080800
H    0.77196700  -1.15434800  -1.26106100
H    0.61099300  -1.43544300   0.50033000
H    3.03080500  -0.05463800  -0.88178500
H    2.87012600  -0.33706400   0.88421700
H    2.00608200   3.36332100   0.48641100
H    4.45374400   1.41424100   0.39870900
H    4.46452800   3.25223000   0.69518600