10
Properties=species:S:1:pos:R:3 pbc="F F F"
O        1.01648962      -0.13612996      -0.00306000
C        2.32149911       0.06309998       0.00190000
C        3.13089871       1.17385960       0.00321000
C        4.46120834       0.68390977       0.00949000
C        4.36405849      -0.68886977       0.01155000
O        3.06051874      -1.07254958       0.00693000
H        0.60322982       0.74136972      -0.00634000
H        2.81266904       2.20541906       0.00005000
H        5.37735796       1.25727952       0.01219000
H        5.08578825      -1.49375939       0.01591999
