15

C    1.01785800  -0.11616200   0.02828700
O    2.33770100   0.21509200   0.36377400
C    2.84398500   1.49128300   0.15687100
C    2.54306200   2.24669100   1.52044100
C    4.33007200   1.41758100  -0.12846300
H    0.58143200  -0.63252200   0.89924700
H    1.09650200  -0.87387000  -0.77764800
H    0.43911200   0.75596200  -0.30419500
H    2.25286300   1.99859000  -0.62669500
H    3.06690800   1.74965800   2.34572900
H    1.46264200   2.28872200   1.70537600
H    2.94185000   3.25888800   1.36333600
H    4.87091700   0.91317600   0.68403600
H    4.71683800   2.44006800  -0.23226500
H    4.50451200   0.87669700  -1.06884500