15

C    0.84208000  -0.15691800  -0.46813800
C    2.25232500  -0.05985500  -0.20155700
C    3.46175700   0.01032500   0.02909800
C    4.82157500   0.08578200   0.28906900
C    5.54265900  -1.09721800   0.47983700
C    5.50777900   1.42249000   0.36392300
O    6.84826000   1.21948400   0.63250500
H    0.39722400   0.82703700  -0.66955200
H    0.34259100  -0.61671800   0.40226000
H    0.67447800  -0.82985000  -1.32568800
H    5.04752600  -2.06965900   0.42575800
H    6.61486000  -1.03650500   0.68511300
H    4.98297600   2.01560800   1.14127300
H    5.32029300   1.93956600  -0.59995600
H    7.31475500   2.05921100   0.68673400