17

C    2.71541700  -0.02722300   2.22581500
O    2.71432900   1.39287500   2.28095800
C    2.61175200   2.11445200   1.16916300
C    2.16575400   3.52559500   1.43261900
C    4.26176300   2.15713900   0.52078200
C    4.26773700   2.88185800  -0.68433000
C    4.24657500   3.51429800  -1.73030600
H    2.21300500  -0.37926200   3.13490500
H    3.76052400  -0.37809300   2.24496200
H    2.19694500  -0.39089300   1.32699800
H    2.09228000   1.58975800   0.34723600
H    2.80793900   4.02022900   2.17439800
H    1.14255500   3.48589800   1.83601100
H    2.16117200   4.10678300   0.50199900
H    4.48857300   1.08921000   0.39518500
H    4.82142200   2.62689700   1.34081300
H    4.25322700   4.06859700  -2.65671200