17
Properties=species:S:1:pos:R:3 pbc="F F F"
C        1.99026930      -0.37941986       1.39626944
C        2.51036906       0.03861998       0.02821999
C        3.08485889       1.41598940       0.03288999
C        4.37421846       1.77502930      -0.10230996
C        4.49534845       3.26999855      -0.06534997
C        3.06587887       3.69171858       0.10074996
C        2.27566910       2.61012888       0.15181994
H        1.60464942      -1.40321946       1.35544944
H        1.17634952       0.27193990       1.73180938
H        2.78557897      -0.34775987       2.14875913
H        1.69927931      -0.01994999      -0.70723975
H        3.27265882      -0.68171978      -0.29271987
H        5.20819807       1.10026968      -0.22316992
H        4.91578817       3.65571856      -0.99845958
H        5.10633802       3.59701872       0.78077972
H        2.73350906       4.71644831       0.16519994
H        1.20163953       2.61149907       0.26326990
