16

C    1.78390200  -0.65756500   1.07610600
C    2.38227500  -0.19405200  -0.05951900
C    3.02085200   1.11366700  -0.14527500
C    4.66450600   0.86002700   0.07461200
C    5.30308000   2.16774600  -0.01114900
C    5.90145400   2.63126000  -1.14677600
H    1.23865400  -1.60503700   1.07890700
H    1.80292900  -0.08406500   2.00847500
H    2.40109600  -0.83035000  -0.95120500
H    2.70666900   1.81328100   0.64023500
H    2.92793100   1.56868700  -1.13828400
H    4.97868700   0.16041000  -0.71089700
H    4.75742300   0.40500900   1.06762200
H    5.28426300   2.80404800   0.88053400
H    5.88243400   2.05775200  -2.07914100
H    6.44671100   3.57872700  -1.14957500