17

N    1.25723100   0.24716700   0.27672100
C    2.59974600  -0.06512200   0.05228700
C    2.75076300  -1.57690900  -0.49131500
C    2.71848400  -1.49217600  -2.01909700
C    3.10004400  -0.06129800  -2.36244800
N    2.03283800   0.89641200  -2.10951300
C    3.09902700   0.77927400  -1.13767600
H    0.76153900   0.60743500  -0.56105000
H    0.76564800   0.03123600   1.14526300
H    3.17212400   0.02282400   0.98716100
H    2.00224900  -2.24402000  -0.04479800
H    3.74207800  -1.88219800  -0.12623400
H    3.43905200  -2.20317900  -2.44742100
H    1.72807300  -1.73204400  -2.43121000
H    3.79579300   0.14264100  -3.17983900
H    2.07529100   1.73699400  -2.68407000
H    3.78132400   1.61011400  -0.94097500