21

C    1.44132200  -0.53502600  -0.78187700
C    2.72702700  -0.48786500   0.06341900
C    3.43351200   0.81608100  -0.13975400
O    2.86185100   1.92254900   0.27923200
C    5.15064100   0.74473600   0.87436100
C    5.89763500  -0.43554200   0.35632300
C    5.74767300   2.09671800   0.68479500
H    0.95900400  -1.51140700  -0.64264300
H    1.66055600  -0.41305000  -1.85171600
H    0.72447100   0.24349800  -0.48501400
H    3.39038800  -1.31003100  -0.23117200
H    2.48940000  -0.62191800   1.13291800
H    3.97503400   0.98569400  -1.08184900
H    2.18612500   1.75801900   0.95694700
H    4.64335700   0.59121600   1.83797700
H    6.15448300  -0.34036200  -0.70918500
H    5.40163300  -1.39403400   0.54814400
H    6.85681300  -0.45772700   0.90786300
H    6.12318000   2.25186100  -0.33705700
H    6.62072000   2.15009600   1.36201700
H    5.06801500   2.90980800   0.96457000