19

C    2.00603900  -0.43712200   0.27997800
O    2.24360300   0.44654600  -0.79885900
C    2.48275500   1.74181100  -0.52261400
C    4.10823600   1.93290400  -0.26479000
C    4.40483800   3.34272100  -0.07575400
C    4.65158100   4.20129800  -1.26372200
C    4.41781400   3.86563700   1.21497500
H    1.64493200  -1.37678900  -0.15128200
H    1.25334100  -0.02226300   0.96920900
H    2.94366500  -0.63560100   0.82866200
H    1.95365400   2.11178300   0.37141300
H    2.25418800   2.34998000  -1.40963300
H    4.56505300   1.50933700  -1.16835000
H    4.32356100   1.31895600   0.62136500
H    5.55631600   3.85256100  -1.79063100
H    4.76832200   5.26143700  -1.01072800
H    3.82654700   4.09631800  -1.99017200
H    4.16669000   3.24561600   2.08064100
H    4.70733000   4.90365600   1.40144400