17

N    0.91235800  -0.04168000  -0.41908100
C    2.21154600   0.01986200   0.15941500
C    3.26066900  -0.83511000  -0.49924900
C    2.80435800  -1.43326800  -1.81172700
N    2.17718400  -0.29975800  -2.45111500
C    2.82357100   0.94447900  -2.10338700
C    3.27264900   0.67392800  -0.68437100
H    0.36594600   0.81594000  -0.36450400
H    0.35332500  -0.85209500  -0.15872500
H    2.28808400   0.15254100   1.24462900
H    4.01409300  -1.35323700   0.09421700
H    3.66722700  -1.77554800  -2.41403800
H    2.09704900  -2.27097000  -1.73037900
H    1.53502000  -0.39076900  -3.23532600
H    3.69057000   1.11728600  -2.76888600
H    2.12972400   1.78802100  -2.22839000
H    4.03522100   1.30828000  -0.23229700