15

C    1.01830800   0.00964800   0.17205800
C    2.52464300  -0.02437800  -0.10008800
N    2.90683700  -1.09362000  -1.01683000
N    3.54930300  -0.72394400  -2.06496500
C    3.69696700   0.60760000  -2.01374000
C    3.10536000   1.15198800  -0.84375700
C    3.07384600   2.47004700  -0.48508500
H    0.79735700   0.83545300   0.86121300
H    0.69120700  -0.92301400   0.65137300
H    0.45408900   0.16117800  -0.75791700
H    3.07434100  -0.19179000   0.84632700
H    2.70229300  -2.08680300  -0.88984200
H    4.21832900   1.12670600  -2.81822900
H    2.59387700   2.80336500   0.43814200
H    3.53517900   3.22909200  -1.12120700