18

C    0.94434600   0.91852000   1.03808800
C    2.42543700   0.64096700   1.11272800
O    3.10194900   1.50394900   0.19495200
C    4.44046500   1.32821800   0.10461300
C    5.10280300   2.23120400  -0.95660200
N    6.01385400   2.69140600   0.05611600
C    5.35647100   2.06854000   1.16412000
H    0.40799800   0.26202900   1.73667300
H    0.56550900   0.72979600   0.02430000
H    0.72725700   1.96148300   1.30695100
H    2.65138800  -0.40830500   0.84988100
H    2.81128600   0.82305700   2.13377200
H    4.75370600   0.27066500   0.00509700
H    4.43095900   3.03768100  -1.31242700
H    5.60648500   1.78457800  -1.83068100
H    6.96378500   3.06899600  -0.02732000
H    6.03752100   1.54227600   1.85245700
H    4.75793500   2.80373000   1.73997800