13

C    0.90685300   0.06956100  -0.09233400
C    2.36821700  -0.04387800  -0.02265800
C    3.00856300  -1.36246200  -0.08467100
C    3.13991900   1.15238600   0.10247200
C    4.52792000   1.12706100   0.22771700
N    5.69255900   1.09833400   0.33414400
H    0.55253200   1.05096700  -0.43289800
H    0.54411200  -0.06569900   0.95137300
H    0.45610900  -0.75140400  -0.66870800
H    2.36842500  -2.14277000   0.35293500
H    4.02647800  -1.39341400   0.32458600
H    3.07840000  -1.61337300  -1.16629600
H    2.64760300   2.13171000   0.10245900