11

O    0.99391100   0.06888000  -0.41875700
S    2.42590000  -0.00906900  -0.08276200
O    3.07198200  -0.13116700  -1.40085400
O    2.74502700  -1.23227600   0.84511000
C    3.37096800  -0.86129800   2.08776100
C    3.50928500   0.62121800   2.07416200
C    3.04266900   1.21615700   0.96755100
H    4.34344300  -1.37643000   2.14249900
H    2.72871100  -1.21886400   2.90856300
H    3.95993300   1.15869800   2.91319200
H    3.00638800   2.26688000   0.67299100