17

C    0.90298700  -0.08274600   0.06629500
C    2.38515800   0.01329100  -0.20729900
C    3.05680100  -1.22862300  -0.81319800
C    3.60341000  -0.74279600  -2.09255100
C    3.27415900   0.62519900  -2.23970100
C    3.60188300   1.55386600  -3.33689800
O    2.60898300   1.05931800  -1.22537300
H    0.50556900   0.88414700   0.40076400
H    0.73794000  -0.81707100   0.86737600
H    0.35438800  -0.41092700  -0.82843300
H    2.92504700   0.38675100   0.67513900
H    2.34502900  -2.05957000  -0.98098700
H    3.85145100  -1.65305400  -0.17278400
H    4.16408800  -1.32720300  -2.82327600
H    4.41193600   2.22398100  -3.00181100
H    2.73328900   2.18607300  -3.56920600
H    3.93678400   1.01392100  -4.22956000