12

C    0.90852600  -0.07929400   0.00089100
C    2.33711800   0.01852300   0.00094400
C    3.57492600   0.09506600   0.00039700
C    5.00487500   0.14961900   0.00019400
C    5.64228700   1.44573600  -0.00025300
C    6.20629500   2.51879900  -0.00064300
H    0.42874200   0.90887500   0.01248400
H    0.58454600  -0.67299900   0.87576600
H    0.58499800  -0.64986000  -0.88972600
H    5.36380500  -0.47159000  -0.85728500
H    5.36413000  -0.47124200   0.85777900
H    6.71040500   3.47239400  -0.00054600