19

C    1.02433800  -0.13433600   0.07210000
C    2.51984100   0.11392000   0.08188100
C    3.11917300   1.24852900   0.91123800
C    4.54500100   0.76052800   1.15049100
C    4.35978500  -0.75236700   1.25592000
C    5.50129600  -1.69810300   0.93822800
O    3.22325900  -1.04932400   0.46943600
H    0.76381400  -1.00704400  -0.54051000
H    0.53039500   0.75171900  -0.34813600
H    0.66552800  -0.28891800   1.09975600
H    2.86224200   0.21444500  -0.98439300
H    2.55616900   1.34120600   1.85444800
H    3.06077700   2.20872500   0.38461800
H    5.20169400   0.98403800   0.29375400
H    5.01063800   1.17466300   2.05292900
H    3.97230500  -1.00737100   2.28011700
H    5.86960400  -1.50881700  -0.08021900
H    5.19232400  -2.74773500   1.02535200
H    6.31422300  -1.50933600   1.65180600