18

N    1.09142900  -0.02490500   0.30759200
C    2.44462500  -0.13674100   0.14886100
C    2.95196300  -1.40240900  -0.55288700
C    2.59187900  -1.46775000  -2.03563900
C    3.09481200  -0.22896100  -2.76963400
O    2.57337400   0.92882200  -2.11736700
C    3.01639800   1.14534600  -0.88023300
H    0.44499900  -0.37144600  -0.39706100
H    0.69053500   0.54859900   1.04482800
H    2.96800600   0.10005600   1.08667200
H    2.55066400  -2.27124400  -0.00946200
H    4.04579700  -1.42727500  -0.43162100
H    3.04788900  -2.35867800  -2.49111100
H    1.50438500  -1.57276300  -2.18270400
H    4.19722800  -0.18080500  -2.76553700
H    2.73790300  -0.18447700  -3.80449100
H    4.10735100   1.03378100  -0.74114000
H    2.61728500   2.08171000  -0.47433700