20

C    1.02305900  -0.00832000  -0.17310000
C    2.53636600  -0.00826700  -0.02129600
C    3.07114100   1.12372000   0.86722400
N    4.31449700   0.61710300   1.36456200
C    4.50936300  -0.77929100   1.11534700
C    3.13341400  -1.26886300   0.64204800
C    3.19130900  -2.50390800  -0.24369800
H    0.70322600  -0.82711000  -0.83148000
H    0.66739300   0.92973500  -0.62233200
H    0.52357000  -0.13814000   0.79946000
H    3.00093200   0.10743100  -1.01721200
H    2.41405200   1.29914500   1.75005600
H    3.21613300   2.11091200   0.39678500
H    5.00078100   1.19947300   1.85331200
H    5.27528700  -0.86312600   0.31023300
H    4.94517000  -1.27287200   2.00041900
H    2.53684200  -1.49676900   1.54381800
H    3.76588400  -2.31034400  -1.16272400
H    2.17917500  -2.81538100  -0.53481600
H    3.65477300  -3.35047500   0.28239900