18

C    1.79062300  -0.17939400   0.50408600
C    2.66443700   0.02591000  -0.72417700
C    2.19658300  -0.58825100  -2.00649100
C    0.96635400  -1.08326400  -2.23028000
C    2.75910000   1.54006200  -1.06986200
C    3.94557400   2.31240300  -0.39211300
N    3.85090100   2.05344300  -1.77390700
H    2.23785400   0.30190700   1.38472100
H    1.69491100  -1.25226800   0.71895100
H    0.78102800   0.23504000   0.36767800
H    3.69245300  -0.31405500  -0.52093300
H    2.93696900  -0.60925800  -2.81430000
H    0.17538600  -1.06002000  -1.47611300
H    0.72543800  -1.56019000  -3.18336900
H    1.78876000   2.01161300  -1.26469900
H    4.57119200   1.63639200   0.20237400
H    3.88690000   3.35258300  -0.05639700
H    3.77007000   2.79098500  -2.47820600