13

C    0.98245800  -0.00987900  -0.00436600
C    2.44934900   0.01485800   0.00138300
C    3.30937100   1.18477600  -0.00822800
N    4.53156100   0.69564500   0.00005000
O    5.72287500   1.28343400  -0.01317000
C    4.45082600  -0.72324300   0.01190100
N    3.21630900  -1.10916900   0.01303400
H    0.53899700   0.99168400   0.00232400
H    0.62682000  -0.58819000   0.86598900
H    0.63466400  -0.56989000  -0.89027100
H    3.06659400   2.24729200  -0.02138700
H    5.61023700   2.24477200   0.07099600
H    5.36211200  -1.32536200   0.02053400