17

C    1.10177200  -0.28080800  -0.21688100
O    2.40422700   0.02600500   0.25230500
C    2.90639900   1.26882400  -0.00161400
C    2.37442800   2.32335000   1.07020900
C    4.33922500   1.28941600  -0.00566900
C    5.56828300   1.35050400   0.00756800
C    7.00636000   1.39853100   0.00066400
H    0.74266600  -1.12902000   0.37501000
H    1.15814400  -0.57062600  -1.27918600
H    0.42100500   0.57890200  -0.10826100
H    2.54114500   1.68173400  -0.97266900
H    2.69669800   2.00147900   2.06724400
H    1.27972200   2.33729800   1.00480700
H    2.78123100   3.31092700   0.82339500
H    7.37561700   2.43322200   0.01353000
H    7.38413000   0.88531400  -0.90070600
H    7.39824600   0.84842100   0.87249300