12

O    0.94217400   0.13824800  -0.45107800
C    2.11991100   0.16135100  -0.04711300
C    2.94551100   1.25408700  -0.03077800
C    3.69239600   2.22834900   0.02009000
C    4.55510200   3.34550600   0.04614200
C    4.63687200   4.23406000  -1.20433200
N    3.90541200   4.65900500  -0.06597500
H    2.46064300  -0.84052500   0.31829200
H    5.47848000   3.22007700   0.62222900
H    4.05027900   3.95198400  -2.08338300
H    5.64085900   4.62371100  -1.40551900
H    4.40714400   5.33790500   0.50813600