15

C    0.86076300  -0.08074400   0.16852000
C    2.35907100  -0.00731900  -0.01444000
C    3.11302200   1.06693000   0.83988400
O    3.28197900   0.02053000   1.77715900
C    3.21289200  -1.02010700   0.82112200
C    2.84950900   0.02928500  -1.50669900
O    2.07148300  -0.00137800  -2.38811200
H    0.61195500  -0.10253900   1.23853800
H    0.45745500  -0.98942700  -0.29858200
H    0.37210600   0.79374300  -0.28207200
H    2.56339500   1.91809600   1.26052900
H    4.07068500   1.38207400   0.38302200
H    4.19578000  -1.23413100   0.35928800
H    2.74730100  -1.92733100   1.22571600
H    3.96016100   0.08467900  -1.64006300