15

C    1.00621200   0.04120000  -0.32975400
C    2.33194100   0.01304200   0.02219700
C    3.17542600  -1.20734500   0.26828300
C    4.52005000  -0.62966900   0.61417100
C    5.65962100  -1.32563900   0.92918000
C    4.43081100   0.78968700   0.56432500
C    3.13903000   1.16912100   0.21484100
H    0.43214200  -0.87898100  -0.46486700
H    0.48868900   0.99134400  -0.48431200
H    3.22529100  -1.85768300  -0.62210700
H    2.77179800  -1.82642500   1.08806300
H    5.67261500  -2.41825800   0.95287500
H    6.58831100  -0.80028300   1.16588400
H    5.25646500   1.47297000   0.77062300
H    2.79040900   2.19732000   0.10344700