13

N    0.99238000   0.00220500   0.00227100
C    2.31657800  -0.01328300  -0.00133800
C    3.17873300   1.14671200  -0.00130800
O    2.63434200   2.34630300   0.00240400
C    4.50173300   0.69176800  -0.00565200
C    4.43903800  -0.69399900  -0.00871100
N    3.12208200  -1.10381200  -0.00610300
H    0.51473300   0.89850100   0.00502400
H    0.42840900  -0.84005000   0.00178700
H    3.29134100   3.05525800   0.00266100
H    5.40983800   1.28957400  -0.00686500
H    5.24656200  -1.42295000  -0.01276600
H    2.81658800  -2.07035700  -0.00506500