18

C    1.38894600   0.13944600   0.83741800
C    2.46825600  -0.05761300  -0.21755300
C    2.47692900  -1.43892500  -0.90451400
C    2.83449200  -1.18227600  -2.35859500
C    4.02861900  -0.39869600  -2.64809100
C    2.62557200   0.35167500  -2.56589200
N    2.30683000   0.86541800  -1.34580500
H    1.43663300   1.14471000   1.27977700
H    1.54562200  -0.58661600   1.64664900
H    0.38690600  -0.02476900   0.41571400
H    3.45182000   0.16718800   0.23770600
H    1.47648300  -1.89109600  -0.84650400
H    3.18522100  -2.12847500  -0.42461900
H    2.42589400  -1.83208700  -3.13718000
H    4.73584600  -0.13781900  -1.85593500
H    4.42708800  -0.39641700  -3.66525700
H    2.25575200   0.85035700  -3.46303500
H    1.93762300   1.80901500  -1.22981600