13

C    1.79369400  -0.14050200   0.13190400
N    0.99859100  -1.33550200   0.27144400
C   -0.04378800  -0.93149700  -0.65118700
C   -1.14817500  -0.41235300   0.24768900
N   -1.09007200   0.86105200   0.41919400
O   -0.08341200   1.40061700  -0.27778200
C    0.72645000   0.40076200  -0.85831200
H    2.75878600  -0.35128000  -0.36496900
H    1.97871200   0.41969900   1.06329800
H    0.99021900  -2.05235400   1.00312500
H   -0.32296800  -1.63683400  -1.44551700
H   -1.90349800  -1.01281200   0.75847700
H    1.06236900   0.73442500  -1.84525400