13

N    1.27119500   0.12390200   0.40280800
N    2.51618500   0.00337400   0.05976100
C    3.29645100  -1.21440200  -0.06474000
C    4.62832900  -0.65158000  -0.48648900
C    4.62219400   0.68423500  -0.59044800
C    3.29374600   1.20784200  -0.25559100
O    2.77995100   2.27872000  -0.19467600
H    0.91030600   1.08454900   0.43020500
H    0.70644500  -0.69167800   0.62954400
H    2.85933500  -1.88527400  -0.82360100
H    3.34716200  -1.74888400   0.89898600
H    5.48048200  -1.30524300  -0.67610600
H    5.44688300   1.33497900  -0.87541000