19

C    0.88516600   1.05530500  -1.09511300
C    2.35222200   0.99821800  -1.14892300
C    3.17463200   1.08814700  -0.02946800
C    4.67752200   0.98137100  -0.02704400
C    5.24821900   0.58034500   1.31593200
C    5.33594200   0.28253200  -1.19881900
O    4.71779300   2.42106300  -0.13654000
H    0.54152100   1.89551500  -1.72882200
H    0.48535100   1.17236400  -0.08074400
H    0.45530900   0.15622600  -1.57073400
H    2.81184300   0.84941900  -2.13330300
H    2.72413800   1.34996000   0.93430400
H    4.79897100   1.16715500   2.12852500
H    6.33332000   0.74902700   1.32378600
H    5.05858200  -0.48682200   1.49829600
H    4.97675100   0.64588300  -2.17348200
H    5.14968700  -0.79914400  -1.14478000
H    6.42214100   0.44199600  -1.15612500
H    4.79642400   2.69264100  -1.06604500