12

C    0.99040400   0.02819400  -0.07562800
C    2.44551400   0.11915700   0.06960300
C    3.44274000  -0.71504200  -1.24343000
C    3.35634800   0.71979500  -0.94116500
H    0.56450400   0.78918800   0.61303600
H    0.60065600  -0.93354600   0.29723700
H    0.62887000   0.24025800  -1.08975500
H    2.88357100  -0.17820900   1.03028200
H    2.78735200  -1.17214800  -1.99120300
H    4.19890300  -1.35118800  -0.77323300
H    4.26786000   1.15495500  -0.51248800
H    2.84725700   1.32559600  -1.70030200