16

C    3.31977100  -1.03501700   0.17064600
O    4.17921000   0.07491600   0.41990100
C    3.90435100   1.22361600  -0.19443500
C    4.98783200   2.25049100  -0.07624100
N    5.27180200   2.62083000   1.32487400
C    4.39622800   2.70201700   2.28355500
O    3.15002200   2.45488900   2.15601000
H    3.73334300  -1.88408700   0.72376100
H    3.29923400  -1.26581900  -0.90505200
H    2.30198500  -0.81853500   0.52828600
H    2.95492900   2.08028700   1.25093500
H    3.28969500   1.20658300  -1.10414700
H    4.71307100   3.15862100  -0.63387400
H    5.93657600   1.87174600  -0.49182600
H    6.23464900   2.84699500   1.56585500
H    4.72485700   3.00864100   3.28345900