14

C    0.40043300   1.37707700   0.32121000
C    1.35801500   0.34300900  -0.22816700
O    0.92015600  -1.01507500   0.10653400
C   -0.31911300  -1.31097600   0.18847500
C   -1.34860000  -0.36008100   0.02819100
C   -1.03477500   1.07292100  -0.11135300
H    0.71787000   2.36759200  -0.03165800
H    0.46568000   1.39570600   1.42020500
H    2.36686600   0.40937100   0.19221400
H    1.42795400   0.35339400  -1.32697600
H   -0.51515900  -2.36962400   0.39251800
H   -2.37987400  -0.72407300   0.00514600
H   -1.21005200   1.33703900  -1.17743800
H   -1.77914100   1.67302900   0.43742000