22

C    1.00498900   1.08110400  -0.27034400
C    2.52092700   1.15600200  -0.40772800
C    2.94444800   2.46045300  -1.12067100
N    4.36139900   2.54163200  -1.29030800
C    5.20195300   3.52981900  -0.69814500
C    5.54761100   3.15171800   0.77630500
C    6.46894700   4.19819100   1.38911600
H    0.72645300   0.15431700   0.24885600
H    0.50948300   1.07855300  -1.25212300
H    0.60956500   1.92392700   0.31501800
H    2.89650700   0.29291000  -0.98095200
H    3.00262100   1.12591200   0.58171200
H    2.60275100   3.35469400  -0.58108600
H    2.49221200   2.47064700  -2.13225500
H    4.81284900   1.75288900  -1.76450800
H    4.67125200   4.49437900  -0.70879800
H    6.12835400   3.60453400  -1.28554000
H    6.02280600   2.15879800   0.78551000
H    4.60813300   3.07627700   1.34549300
H    7.42152500   4.26883200   0.84469600
H    6.69626100   3.91887000   2.42713400
H    6.00095300   5.19304900   1.40288800