18

C    1.20129800  -1.18116200   0.49734000
C    2.17306200  -0.06240800   0.16825400
N    3.44218900  -0.53860600  -0.29766300
C    1.81388700   0.83762100  -1.01286900
C    1.48632600   0.24079700  -2.20688000
C    1.92501100   2.28457800  -0.92875600
C    2.21810200   2.99311400   0.17753100
H    0.22615000  -0.75847400   0.77299400
H    1.57812100  -1.76388000   1.34919100
H    1.05041000  -1.86522100  -0.35043900
H    2.32553800   0.55492800   1.06483100
H    3.54735100  -1.46995200  -0.69389000
H    4.24443700   0.08310600  -0.35607500
H    1.44758000  -0.84394900  -2.32614900
H    1.20305800   0.84471000  -3.07327600
H    1.74581800   2.82554600  -1.86310700
H    2.44820600   2.53935300   1.14490200
H    2.24060100   4.08460000   0.14137400