12

C    0.95671300  -0.03725300   0.00764400
C    2.35834900  -0.02694900   0.00764800
N    3.07180900   1.08131100   0.00583500
C    4.54639200   1.04100600   0.00592900
O    5.08641900  -0.01789900   0.00754400
C    5.12959700   2.34892200   0.00360900
C    5.64211500   3.44409600   0.00165600
H    0.42582700  -0.99170300   0.00920600
H    0.37280400   0.88811200   0.00611400
H    2.94481500  -0.95409600   0.00918300
H    2.61913000   1.99936900   0.00431700
H    6.11026300   4.41673800  -0.00036500