15

C   -1.44123600   0.67776800   0.25461500
C   -1.42269300  -0.76534100  -0.26370800
C   -0.27694500  -1.57611600   0.23857200
C    0.98990400  -1.04497600   0.53787900
N    1.44792700   0.13962200   0.19320100
C    0.87061300   1.15495600  -0.42555500
N   -0.39496400   1.49674700  -0.35447200
H   -2.40064400   1.15040500   0.01256500
H   -1.33192700   0.70319800   1.35135900
H   -1.42481300  -0.76981100  -1.37135400
H   -2.36257100  -1.25842800   0.02613300
H   -0.44096200  -2.63475800   0.46092100
H    1.68310400  -1.66147700   1.12261300
H    1.52630600   1.81572800  -1.00683100
H   -0.65957500   2.39080400  -0.76368800