15

C    0.63311300  -0.01340000   0.20692700
C    2.06434600  -0.33331200   0.01347800
C    2.53194900  -1.68042700  -0.02183700
O    2.84948900   0.66834900  -0.11905700
C    4.28090800   0.59643400  -0.31810700
C    4.81746000   2.02436000  -0.42528900
O    5.98127300   2.20877900  -0.59246100
H    0.46741700   1.06949600   0.20609500
H    0.28427600  -0.44928900   1.15804900
H    0.03909700  -0.48812500  -0.59188900
H    1.81066900  -2.49222800   0.09751500
H    3.58443600  -1.93576500  -0.16367100
H    4.49422300   0.04732600  -1.24834900
H    4.74503400   0.08735900   0.54084500
H    4.05708400   2.83669000  -0.33700100