12

C    0.87276200   0.05695500   0.00111600
C    2.35511300  -0.03551600   0.02715800
N    2.95124200  -1.17863100   0.23647500
C    3.14235100   1.15409700  -0.18122500
C    4.53832900   1.11096700  -0.16528900
N    5.70026300   1.00783800  -0.14013900
H    0.53915300   0.77199200   0.76965600
H    0.38738500  -0.91137000   0.17271300
H    0.55013800   0.45735700  -0.97299600
H    2.41451900  -2.03187100   0.38637600
H    3.96985400  -1.26388300   0.25842600
H    2.63699100   2.10830300  -0.35502800