17

C    0.92692900   0.43358400   0.62539100
C    2.30019400   0.08651700   0.19775400
C    2.73922800  -1.24283700   0.15950900
C    3.25420700   1.13894700  -0.13610000
C    2.75493700   2.58003800  -0.28661600
O    2.85086900   2.82109700   1.12570700
C    3.68216400   1.73605900   1.32638800
H    0.94082800   1.28929900   1.32405200
H    0.38670400  -0.41041100   1.06837100
H    0.36450000   0.79448500  -0.25679900
H    2.04762500  -2.06645100   0.35784500
H    3.77492300  -1.49191300  -0.08971200
H    4.10021100   0.80988000  -0.75053400
H    1.72505600   2.71621000  -0.64742900
H    3.43625700   3.22662100  -0.85997800
H    4.76289100   1.95426000   1.23911300
H    3.46959100   1.16573900   2.24382500