14

O    1.34754800   0.22729400   0.81302500
C    2.36316000  -0.02677100   0.25475300
C    3.04083600  -1.33205800  -0.00860500
C    3.96647700  -1.24496700  -1.22241100
C    4.92163100  -0.08518300  -1.08713900
O    4.19301900   1.18364000  -0.90117600
N    3.08022000   1.15004400  -0.26089400
H    2.25696500  -2.09318600  -0.12432900
H    3.59931800  -1.59396600   0.90770300
H    4.56194900  -2.16373000  -1.31537300
H    3.38746800  -1.14838200  -2.15408300
H    5.58280300  -0.15687400  -0.20862000
H    5.52300900   0.11650300  -1.98040800
H    2.64882900   2.07820900  -0.14453200