11

C    0.97641900   0.00270500  -0.00629900
C    2.44232500   0.04502400   0.00103900
C    3.24195500   1.25494500   0.00140600
S    4.87177000   0.91463800   0.00905400
C    4.44976900  -0.83450400   0.01207600
N    3.18641200  -1.08740900   0.00699700
H    0.51658100   0.99638300   0.00031500
H    0.63050400  -0.58702900   0.86165700
H    0.64027900  -0.56825200  -0.89095400
H    2.85163000   2.27564800  -0.00277200
H    5.24300500  -1.58985900   0.01694000