18

N    0.80040400  -0.06198700   0.11260800
C    2.13448000   0.06194700  -0.14233600
C    2.71399000  -1.42125100  -0.91854400
O    2.34820600  -1.46784000  -2.20274500
C    2.53095000   1.24271800  -1.01296900
C    3.99538300   1.22727400  -1.43150000
O    4.74622000   0.82830800  -0.31176500
H    0.10153900   0.32040900  -0.52033200
H    0.45659800  -0.55468800   0.93271000
H    2.74551300  -0.03558700   0.76846900
H    2.34340600  -2.23177400  -0.27555800
H    3.78791400  -1.21708100  -0.80318500
H    1.55381800  -1.99898500  -2.34304100
H    2.33389800   2.13678900  -0.39834300
H    1.88766900   1.30203000  -1.90454700
H    4.26804400   2.23631200  -1.78289700
H    4.13804900   0.53724000  -2.28450000
H    5.68440900   0.96783400  -0.47248900