13

O    3.04918700  -0.96436900  -0.63360700
C    2.30525400  -0.07586700   0.12763700
C    3.11348800   1.23634500   0.08127800
C    2.59553200   2.46635600   0.77491700
N    2.67080900   3.43440400  -0.07688900
N    3.10720200   3.05430000  -1.20733700
C    3.38856500   1.79911700  -1.28884800
H    2.60727000  -1.81860700  -0.68856100
H    2.20577900  -0.37155200   1.18832100
H    1.29154600   0.10430900  -0.27419300
H    4.11070000   0.98968300   0.51688900
H    2.24848900   2.59331000   1.80187000
H    3.76619500   1.29427600  -2.17948700