16

C    0.83075000   0.04003500   0.22276600
C    2.31910000  -0.05289000  -0.04621000
C    3.24103100   1.01018100   0.61412800
N    3.90742200  -0.05627000   1.31706300
C    3.12767400  -1.09552100   0.77353600
C    3.96448500  -2.18508400  -0.00852300
O    5.11185800  -2.37426500   0.19610500
H    0.31181200  -0.85250200  -0.15436800
H    0.40352100   0.91334500  -0.28935300
H    0.62025300   0.13356200   1.29902900
H    2.52218700  -0.14188000  -1.12460800
H    2.74070100   1.71028900   1.31007000
H    3.92248500   1.59810100  -0.02602900
H    4.76377900  -0.08827800   1.87940200
H    2.58283800  -1.70154200   1.52881100
H    3.33664700  -2.74497000  -0.74008100