20

C    0.92103100  -0.41678600   0.18845100
C    2.40978100  -0.08564300  -0.01197300
C    3.07270200  -1.11161200  -0.92941800
C    2.50465300   1.35567200  -0.52755200
N    2.11589600   2.31236700   0.36467200
C    4.18099600   1.67799900  -0.97120100
O    4.32862500   2.91241900  -1.45947400
H    0.42884000   0.28615700   0.87560600
H    0.82209800  -1.42714900   0.60796300
H    0.37977100  -0.39632900  -0.76971500
H    2.91064600  -0.11524100   0.97316900
H    2.70191700  -1.02456900  -1.96328800
H    2.82622800  -2.12340300  -0.58047900
H    4.16973800  -1.04359000  -0.93743500
H    2.04932900   1.52323900  -1.51704400
H    2.16445600   2.14758000   1.36818100
H    1.80225100   3.23061400   0.06105600
H    4.28927700   0.93077700  -1.76673400
H    4.74212800   1.43738100  -0.05559400
H    4.64994700   3.53681300  -0.79640800