14

C    1.01135900  -0.13133900   0.26375100
C    2.37803600   0.17444700  -0.37903900
O    2.52566300  -0.26002100  -1.66473300
C    2.86739100   1.56499700  -0.24530600
C    3.59137000   2.19252800  -1.26581200
C    2.64993300   2.25926600   0.97565000
N    2.47108700   2.83034300   1.97044300
H    0.97601100   0.20933000   1.30661800
H    0.83833800  -1.21547300   0.25000600
H    0.22806800   0.37000900  -0.32249000
H    3.13852200  -0.32656100   0.30794400
H    2.23237300  -1.17475400  -1.76289300
H    3.83207600   1.62949800  -2.17274500
H    3.90949000   3.23486600  -1.16996200