13

O    1.05822200   0.11572700   0.22510300
C    2.24287600   0.02945300   0.09357300
C    3.04124400   1.31351700  -0.01708400
N    4.35317300   1.41331900  -0.16683100
C    4.67492100   2.80750000  -0.22584100
C    3.35482600   3.58410800  -0.08926100
N    2.41879600   2.48913800   0.03398500
H    2.82325200  -0.91339700   0.04368400
H    5.41596100   3.03236300   0.56537100
H    5.21903300   3.00379600  -1.16990500
H    3.09519300   4.20450800  -0.96441100
H    3.29453100   4.23283800   0.80162000
H    1.40138700   2.55947900   0.14757700