16

C    1.06792400  -0.00470400  -0.01604700
C    2.67292100  -0.05782700   0.06279200
C    3.10055700  -0.79661800   1.34477400
C    2.93319200  -0.80122100  -1.17465000
C    3.30929500  -0.22790800  -2.39814400
C    3.18849400   1.31518300   0.01328800
N    3.59185000   2.39552800  -0.04363900
H    0.70727300   0.52914800  -0.90429200
H    0.77850500   0.56056200   0.88404500
H    0.64536300  -1.01628500   0.03277200
H    2.74325900  -0.23963700   2.22061800
H    4.19532300  -0.86697900   1.39796600
H    2.66984300  -1.80752200   1.36885600
H    2.75623000  -1.88410700  -1.13394700
H    3.30471200   0.86065900  -2.53715100
H    3.63773600  -0.86169200  -3.22851900