19

N    1.02494300   0.06705500  -0.07193600
C    2.42073100   0.11748800  -0.08260700
C    3.07227300   1.18416300   0.79730300
C    4.47807200   0.65311000   1.02729700
C    4.25858200  -0.82233200   1.36076800
N    5.34470100  -1.67651000   1.15609700
C    3.02360500  -1.27616100   0.44027100
H    0.51200300  -0.36225600  -0.83456900
H    0.50857400   0.22064500   0.78906300
H    2.76545200   0.21782500  -1.12345800
H    2.53134300   1.26651500   1.75526600
H    3.04838100   2.17149600   0.31737800
H    5.07961200   0.74770400   0.10736500
H    5.01763700   1.17159200   1.83090000
H    3.91028900  -0.93168800   2.39954300
H    5.95687600  -1.55199500   0.35528300
H    5.40423000  -2.56927000   1.63412700
H    3.34178700  -1.89414700  -0.41127900
H    2.29802500  -1.84872300   1.03524200