17

C    0.94380800  -0.15779400   0.42711600
C    2.39669200  -0.36603400   0.53355500
O    2.81208900  -1.55149300   0.63691100
C    3.35962000   0.76552000   0.52209700
C    4.78029000   0.38556800   0.08619900
C    5.37194700  -0.71044000   0.92431600
O    5.35229100  -0.45689400   2.24501600
H    0.64255600   0.74905300   0.97031000
H    0.38260600  -1.03878500   0.75970200
H    0.72310600   0.02589400  -0.64065000
H    3.36343000   1.13542900   1.56771300
H    2.93917400   1.58710800  -0.07629800
H    5.41163700   1.28988500   0.15308800
H    4.78738600   0.07829200  -0.97052600
H    6.20503800  -1.30326100   0.52531000
H    3.83950800  -1.57088100   0.70454600
H    5.91425800  -1.06835500   2.73779100