13

C    2.89257900  -1.16168200   0.55806500
N    2.34972300   0.15961500   0.28510900
C    3.07391500   1.25220700   0.10934700
C    2.61966200   2.57199100  -0.16017300
O    3.70282200   3.32663300  -0.25593000
C    4.76289700   2.49488400  -0.05319500
N    4.44572500   1.27135400   0.16463400
H    2.57532400  -1.85178100  -0.23690600
H    2.49929100  -1.51980000   1.52031800
H    3.98507600  -1.10167700   0.59426200
H    1.33655000   0.25015300   0.22438500
H    1.64030000   3.02973000  -0.28948800
H    5.75441000   2.94621600  -0.09566000