18

C    1.95310100  -0.52130600  -1.33635200
O    2.13726800   0.15995500  -0.10814500
C    3.04184100   1.17243100  -0.13157000
C    2.55708500   2.59400400  -0.59810000
N    3.02596100   3.09045100   0.66207100
C    3.28430800   1.80172200   1.26495500
C    4.58925900   1.64140500   2.02184600
H    1.23555700  -1.32754600  -1.15019900
H    2.90200800  -0.95441000  -1.69475200
H    1.54300100   0.15031700  -2.11052500
H    3.99702200   0.91057800  -0.62767400
H    1.45228900   2.64912000  -0.66644200
H    2.99473100   3.11003900  -1.46820800
H    3.34730400   4.02682700   0.93111900
H    2.41950300   1.54004100   1.91295100
H    5.45192000   1.90564500   1.39499900
H    4.67982600   0.58768200   2.31884700
H    4.59719300   2.25276500   2.93481600