17

C    0.86731400  -0.03069400   0.14138500
C    2.39149500   0.05859500   0.00853700
C    3.13346400  -0.79700600   1.02856900
O    2.73947600  -0.25140800  -1.30406200
C    2.75725300   1.57754500   0.20500700
N    3.10952200   2.23052900  -0.86398000
N    2.76915800   2.10501700   1.41111000
H    0.36888800   0.60135800  -0.60666800
H    0.52619400   0.25069800   1.14743600
H    0.57432000  -1.07306200  -0.04419700
H    2.85576700  -0.53058800   2.05766300
H    4.22367100  -0.68222200   0.93103100
H    2.86626800  -1.85121600   0.86797000
H    3.51401200  -0.82673900  -1.32790800
H    3.13986100   1.69134500  -1.73276000
H    3.32649100   3.22406900  -0.85347600
H    1.93261200   2.06936500   2.00193100