10

O    1.01210000   0.01984600   0.00000000
N    2.29276500  -0.08530500   0.00000000
C    2.90403100   1.12798500   0.00000000
C    2.19975700   2.34427800   0.00000000
C    1.60989700   3.40697000   0.00000000
C    4.30331800   1.08250500   0.00000000
C    5.52235900   1.06361600   0.00000000
H    0.65152800  -0.88906800   0.00000000
H    1.08400800   4.35107700   0.00000000
H    6.60324800   1.04020200   0.00000000