17

C    1.00272300  -0.03442500   0.00443100
C    2.33580100   0.02730100  -0.00709400
C    3.21296700   1.26205900   0.05483000
C    4.47899000   0.84492100  -0.71010100
C    4.53145500  -0.63282700  -0.62524100
C    5.63004300  -1.42774700  -0.98650000
C    3.25439000  -1.15668100  -0.11832200
H    0.47360700  -0.98930900  -0.03955500
H    0.39645300   0.87241700   0.06065300
H    3.46770900   1.49338400   1.10300400
H    2.73356400   2.15361100  -0.36768000
H    4.37132400   1.03937200  -1.80356500
H    5.41735700   1.34507000  -0.42312300
H    5.63530000  -2.50388600  -0.78876900
H    6.50210800  -0.98648400  -1.47867700
H    2.87772800  -2.05690100  -0.63449000
H    3.52246700  -1.52842400   0.90736200