18

C    1.33895500   0.39412900   0.10462500
C    2.74085300  -0.12755100  -0.21703500
C    2.89722900  -0.74001800  -1.58199900
C    3.32404800  -1.98548600  -1.78045400
N    3.71596800   0.92610700  -0.03176900
C    4.31854200   1.69170900   1.00205500
C    5.10807600   1.14817800  -0.16965900
H    1.29346800   0.84254400   1.10705600
H    0.63913800  -0.45043400   0.06995900
H    1.02173000   1.13678300  -0.64056400
H    3.02785600  -0.87299800   0.56077300
H    2.59939900  -0.10791700  -2.42591100
H    3.60273100  -2.64510300  -0.95233800
H    3.39452700  -2.40181600  -2.78762800
H    4.35350000   1.21556400   1.98961200
H    4.09083800   2.76529100   1.00255500
H    5.40922500   1.85931600  -0.94958900
H    5.74004500   0.25585200  -0.07889700