16

C    3.54886500  -1.41291300  -1.01070800
N    3.21029100  -0.38238300  -0.08026000
C    3.44850200   0.95915600  -0.34608800
C    5.03697400   1.29090000  -0.42246600
O    5.82164700   0.46968500  -0.74592200
C    5.35040400   2.75526700  -0.06619100
O    6.55668000   3.17020500  -0.54390500
H    3.15066900  -2.37861100  -0.67940700
H    4.66047000  -1.47077400  -1.07260200
H    3.17944800  -1.16104100  -2.01563400
H    3.04460400  -0.65212300   0.88945600
H    2.99484500   1.61794700   0.40657300
H    3.11670300   1.24456600  -1.36033200
H    5.22839900   2.81192900   1.03653000
H    4.55381600   3.37643900  -0.50936900
H    7.28527600   2.79686600  -0.03469400