16

C    0.96871500   0.26052900   0.39263400
C    2.34468500  -0.14245900  -0.15685000
N    2.33467900  -1.46375300  -0.74192500
C    2.93319000  -1.58382200  -2.04259900
C    3.22461100  -0.15090000  -2.42826000
O    2.05348900   0.62787200  -2.42940000
C    2.87777700   0.71314500  -1.29246400
H    1.06464000   1.24638400   0.86599000
H    0.61299400  -0.44938800   1.15183900
H    0.24585300   0.32782400  -0.43089600
H    3.06635000  -0.18466600   0.68837500
H    1.91032300  -2.26308200  -0.26072700
H    3.83075500  -2.23022300  -1.96898400
H    2.23045300  -2.09763800  -2.72634000
H    3.99435500   0.07682000  -3.17032000
H    3.35566900   1.67289000  -1.07702700