17

C    0.94231600  -0.01407300   0.00400100
C    2.44469900   0.06765900   0.06115700
C    3.10542300   1.13936600   0.92757700
C    4.53439400   0.66173100   1.14931500
C    4.38527100  -0.82596900   1.45611800
C    3.16486800  -1.26574500   0.62957200
O    2.77230000  -2.35077500   0.40964400
H    0.59012800  -0.82149200  -0.65037000
H    0.57874400   0.93922000  -0.41348200
H    0.50006000  -0.12632600   1.00395400
H    2.89669800   0.04339000  -0.95250200
H    2.56164600   1.24180900   1.88021900
H    3.04024700   2.10711500   0.40587300
H    5.14516900   0.80491500   0.24558500
H    5.04185600   1.17718300   1.97648900
H    5.23321300  -1.49046300   1.23590200
H    4.05325900  -1.02137400   2.49332400