15

N    0.82185900   0.07758200  -0.13417400
C    2.04762900  -0.17273200   0.20145900
C    3.04616300  -0.78697300  -0.69659100
C    3.78761900   0.45718100  -1.11013400
C    4.98419500   0.84960000  -0.53748200
N    5.54567500   1.98589500  -0.93913000
O    6.70259800   2.18478100  -0.31947700
H    0.43797600  -0.23216300  -1.02669800
H    0.19712100   0.60148200   0.47670000
H    2.36790200   0.17392300   1.19057900
H    2.58603900  -1.31261600  -1.54630300
H    3.68955800  -1.48138600  -0.13790900
H    3.33851400   1.10018200  -1.87246000
H    5.49592300   0.23957200   0.22125700
H    7.04860000   3.01589900  -0.67492400