13

N    1.10186900   0.31049800   1.02813800
C    2.28867700   0.12593000   0.57326800
C    2.69866900   0.41139900  -0.83615500
O    4.04349600   0.85454700  -0.80738700
N    4.86927000  -0.04697800  -1.40852200
C    4.11914100  -1.06383400  -1.83155900
C    2.77448100  -0.90650000  -1.54793200
H    0.36740700   0.74169600   0.46276000
H    0.84604700   0.04067900   1.97962000
H    3.04059000  -0.31402500   1.24087300
H    2.05093700   1.17029800  -1.31591900
H    4.59955700  -1.88267000  -2.36802900
H    1.93806600  -1.54822000  -1.81792400