14

C    0.80630000  -0.15121800  -0.00130700
C    2.17851600   0.31726800  -0.03201400
C    1.02968600   1.40116900  -0.14751000
C    0.68707700   2.48256800   0.82506600
C    0.31598900   3.55216900  -0.13680100
N    0.40797700   3.20074000  -1.37026300
O    0.84098100   1.88612800  -1.38859600
H    0.34006200  -0.40826800   0.95463600
H    0.37207100  -0.60082000  -0.89866000
H    2.75982400   0.22228300  -0.95335200
H    2.74205900   0.42047300   0.90012600
H    1.52881900   2.78264100   1.47583800
H   -0.15102400   2.22457600   1.49875400
H   -0.01384300   4.56646300   0.09972300