16

C    0.87701900   0.10888200  -0.39396400
N    2.28372500   0.30453600  -0.09864000
C    2.97245000   1.43886900  -0.09749200
C    2.32960600   2.74728700  -0.41126700
N    4.26252700   1.24318100   0.21073200
C    5.19593900   2.30933300   0.23631100
H    0.65284600  -0.96094000  -0.33519800
H    0.64465400   0.47199200  -1.40573200
H    0.25615300   0.64799000   0.33715600
H    2.85737700  -0.50961200   0.14090100
H    1.25218500   2.66262600  -0.58457700
H    2.79565500   3.18106000  -1.30951000
H    2.49629500   3.44968900   0.41915000
H    6.04674000   2.02332400  -0.40954900
H    5.63840400   2.33850400   1.25024000
H    4.82458700   3.30592900  -0.04318100