18

C    1.00299300   0.08461300  -0.15758400
C    2.51894400   0.01935400   0.12713800
N    2.90067600  -1.15735900   0.84518000
C    3.65452700  -0.86834400   2.01533900
C    3.74159600   0.61693000   2.01938100
C    3.10108500   1.13562300   0.95551200
C    2.93924800   2.56650200   0.57502500
H    0.67180900  -0.78960200  -0.73395600
H    0.80059700   0.98366000  -0.75399100
H    0.44153300   0.14318700   0.78435600
H    3.02852700  -0.02532700  -0.86561900
H    2.65238400  -2.10144700   0.54917200
H    4.63626300  -1.39250200   1.97711200
H    3.15547100  -1.30497800   2.91010900
H    4.26105600   1.17503800   2.79771700
H    3.29251100   2.74397400  -0.45227300
H    3.50123000   3.22009500   1.25306100
H    1.87906300   2.86275900   0.61381700