18

C    1.01778000   0.25986600  -0.33650600
C    2.44027900  -0.02046700   0.04002500
C    3.27219700  -1.03666100  -0.62077700
C    3.55789400   0.38977000  -1.04896000
C    4.67862000   1.12996900  -0.52439100
C    5.81885200   1.52036400  -1.65819200
N    5.00056900   2.43855100  -0.99215500
H    0.75717200   1.31523400  -0.17586100
H    0.36256200  -0.34531200   0.31148300
H    0.80473200  -0.01158900  -1.37969900
H    2.72485000   0.25051000   1.06184800
H    2.80990600  -1.65583000  -1.39425000
H    4.04499900  -1.53463400  -0.02936300
H    3.15372900   0.72986400  -2.00631500
H    5.05144700   0.84971600   0.46796200
H    5.49753700   1.16857600  -2.64209600
H    6.88627900   1.45592100  -1.42125700
H    5.48548400   3.02051600  -0.30627100