15

C    0.87858000   0.11632100  -0.00936700
C    2.35113500   0.03612500   0.00013600
C    3.27500500   1.09079200   0.00805000
C    4.60068100   0.67352300   0.01514600
C    5.80836000   1.53849200   0.02568900
C    4.67669800  -0.76221700   0.01236700
S    3.16774900  -1.52572300   0.00161900
H    0.54110900   1.15946000  -0.00336900
H    0.45712500  -0.40637700   0.86649200
H    0.47042400  -0.39117400  -0.90050000
H    2.96114900   2.13542000   0.00836900
H    5.54246500   2.60172500   0.01445700
H    6.44342400   1.32021800  -0.84789300
H    6.41665700   1.33339500   0.92149200
H    5.59891800  -1.34926300   0.01656200