17

C    2.36944900  -0.56322000   1.41684800
C    2.60273400  -0.08370000  -0.02999900
C    3.04778900   1.34522900  -0.05628200
C    2.16041200   2.44471900  -0.01626900
C    0.70028900   2.37650200   0.03015400
C    4.40805100   1.64536100  -0.05777900
C    5.60702000   1.89870100  -0.06143900
H    2.04825100  -1.61295600   1.39767100
H    1.58918200   0.02415800   1.92164000
H    3.29298200  -0.49635000   2.00845000
H    1.67717400  -0.18901700  -0.61551600
H    3.37097300  -0.70671500  -0.50785600
H    2.61500100   3.44260100  -0.02852400
H    0.28415200   1.36502500   0.08080200
H    0.29682000   2.90403700  -0.85596600
H    0.34105000   2.97928900   0.88455900
H    6.66426400   2.12204000  -0.06506600