15

C    1.08589600  -0.03871200   0.28804100
C    2.54657500  -0.06851800  -0.02470100
C    3.16957400  -1.30052700  -0.25971800
C    3.31231500   1.14693800  -0.04578200
C    4.59027000   1.24252900  -0.55188700
C    2.73275200   2.45068700   0.49746600
O    3.42006200   3.42429900   0.58894400
H    0.92592700   0.27353300   1.33501600
H    0.62344600  -1.02401700   0.15821800
H    0.55650800   0.68770400  -0.34753700
H    2.58579200  -2.22481000  -0.22896400
H    4.23866900  -1.39957400  -0.45795800
H    5.13130500   0.41072500  -1.00710500
H    5.08112900   2.22212800  -0.52698200
H    1.66985300   2.44698300   0.81588000