17

C    1.56286900   0.89434700   1.73255300
C    2.87846800   1.16661800   1.16776000
C    3.11380500   1.37526100  -0.20954000
C    4.42319200   1.43761400  -0.86578900
C    5.64578600   1.93478700  -0.11114800
C    5.57397500   3.03459800   0.85637400
O    5.71852200   1.68779400   1.26884000
H    1.60612200  -0.06809400   2.28161600
H    0.74390700   0.87651600   1.00364800
H    1.35758900   1.62796200   2.53697600
H    3.75163000   1.20886300   1.83360000
H    2.23193800   1.42605000  -0.86185000
H    4.33552900   1.94421800  -1.84050300
H    4.61525500   0.37047800  -1.14454000
H    6.57930800   1.77017300  -0.66155300
H    4.59549500   3.49502000   1.06140000
H    6.43986400   3.67942400   1.03479400