17

C    2.87859300  -0.89603500   1.72034100
C    2.76346500  -0.77839500   0.22858400
C    2.45194800  -1.78981700  -0.59421200
C    3.04234700   0.60293700  -0.36299500
N    4.48353300   0.73956300  -0.40312000
C    5.24887800   1.36958000   0.50271700
N    6.53807600   1.24854700   0.36360200
H    2.16930800  -0.21942600   2.22264200
H    3.89026000  -0.64393600   2.08138000
H    2.66702100  -1.92130800   2.04944900
H    2.21781400  -2.78141500  -0.19856600
H    2.38676200  -1.66217900  -1.67824500
H    2.62370700   1.41112300   0.25265600
H    2.66107800   0.68973200  -1.38926400
H    5.00367800   0.20270600  -1.10824900
H    4.71902000   1.94315100   1.27746600
H    7.05750800   1.78090400   1.07037300