15

N    1.97892400  -0.88979600  -0.81560300
C    3.18203700  -0.26730700  -0.37263700
C    3.01605600   1.18280300  -0.15602000
C    4.05613600   2.10245800  -0.13862300
C    3.82232700   3.45788600   0.12898300
N    4.87733200   4.26376900   0.15620400
O    4.53713800   5.49163600   0.41391400
H    1.94318600  -1.88657100  -0.63051900
H    1.76654100  -0.71865100  -1.79393700
H    4.09603000  -0.44915500  -0.98296000
H    3.46119300  -0.66185200   0.63085900
H    1.98736000   1.52533400   0.01736600
H    5.08896800   1.78741200  -0.32185800
H    2.81698900   3.86230800   0.31104200
H    5.35745300   6.01665800   0.41587000