13

S    0.79085700  -0.03389000   0.01692600
C    2.53129000  -0.02836900   0.00273800
N    3.18859200   1.11703000  -0.01797600
C    4.65796800   1.26285000  -0.03087600
C    5.31032400  -0.08716700  -0.01638000
C    4.60823700  -1.21494700   0.00382100
N    3.19075300  -1.18301600   0.01292000
H    2.64739100   1.97684100  -0.02555300
H    4.96016700   1.85632300   0.84690300
H    4.94705300   1.83082800  -0.92969900
H    6.39991800  -0.12692000  -0.02302000
H    5.04555600  -2.21220800   0.01453200
H    2.67681300  -2.05746600   0.02981400