14

N    2.68004100  -1.51544400   0.64203700
C    2.45714000  -0.53680200  -0.18985000
N    1.64495600  -0.70277500  -1.23491300
C    3.17090600   0.79822000  -0.08615700
C    4.70780900   0.71943800  -0.01401400
C    5.15378000  -0.00582200   1.17526700
N    5.37459100  -0.64012800   2.11542200
H    3.37441800  -1.42817700   1.39061200
H    2.19247000  -2.40516700   0.54568100
H    0.83228800  -0.08532600  -1.35636000
H    2.76399200   1.29254100   0.81344200
H    2.88543800   1.41291000  -0.95055900
H    5.10547300   1.74454400   0.01543900
H    5.12474000   0.23787700  -0.91178800