14

O    1.10017200  -0.30324300  -0.14555600
C    2.20443000   0.01102800  -0.51370000
C    3.05693400   0.86331400   0.33212600
C    4.35285800   1.24831000  -0.06843200
N    5.11454400   1.99906300   0.66831800
C    5.28573000   2.73423700   1.88507800
C    6.36602600   2.66983700   0.83698200
H    2.62585500  -0.32034100  -1.49037600
H    2.64563800   1.19113400   1.29296100
H    4.76831400   0.92237000  -1.03011100
H    5.38845900   2.13154200   2.79399400
H    4.68673100   3.64678500   1.97677800
H    6.53145600   3.53673400   0.18816000
H    7.23320100   2.02196000   1.00461500