19

N    2.00009700   2.55643400  -2.53200200
C    3.23665000   2.84972500  -1.86831600
C    3.50642300   1.75401500  -0.79126600
C    4.85955500   1.90506900  -0.20481100
N    5.03647000   2.66061500   0.83714800
C    5.94756800  -0.20619700  -0.27421900
C    6.02895200   1.19182700  -0.80861400
H    1.96397800   2.93912700  -3.47154700
H    1.18731500   2.88996800  -2.02090500
H    3.29039600   3.84220100  -1.37634500
H    4.05272600   2.82527900  -2.60744400
H    3.41951000   0.77790000  -1.28554700
H    2.73180300   1.81321500  -0.01083400
H    5.96277600   2.83422200   1.22335100
H    4.25009700   3.09616500   1.31602100
H    5.44862900  -0.99398300  -0.84139000
H    6.33287500  -0.43337600   0.72186600
H    6.97594100   1.68178100  -0.53156400
H    5.92889900   1.20568000  -1.90396600