17

C    1.21981900   0.27539700   1.45982000
N    2.33696900   1.08837100   1.93226200
C    3.52191400   1.17836000   1.35192100
O    4.48682800   1.89876300   1.84208900
C    4.37912300   2.58469000   3.09447300
N    3.73878200   0.45731000   0.23362400
C    4.85591300   0.73171000  -0.59557800
H    0.75771700  -0.21884000   2.32306600
H    1.59501900  -0.46838600   0.74931600
H    0.47680100   0.91489100   0.96308100
H    2.16538300   1.66509100   2.75252500
H    5.35937200   3.03675400   3.27088400
H    4.15171600   1.87104000   3.90082900
H    3.61742800   3.37665900   3.02963900
H    4.50807800   0.72108200  -1.64407600
H    5.53199900  -0.14472900  -0.53537700
H    5.40795800   1.65332000  -0.36702700