18

C    1.04724400   0.01677200  -0.28985100
C    2.52168000   0.01802100   0.17138600
N    2.85841100  -1.13361900   0.95354500
C    3.43714300  -0.82179300   2.22573000
C    4.79459700  -1.52389600   2.45335200
C    3.44795900   0.67693200   2.21185500
C    2.94664300   1.14436400   1.06444000
H    0.82735500  -0.86404600  -0.90798400
H    0.87768900   0.91523400  -0.89731400
H    0.37594800   0.04059100   0.57866600
H    3.14629300  -0.02078100  -0.75223600
H    2.69996200  -2.09054600   0.63311700
H    2.74091500  -1.21186700   3.00555700
H    5.52596000  -1.19114900   1.70509500
H    4.68629400  -2.61598400   2.41041700
H    5.15699000  -1.25214700   3.45323100
H    3.82559000   1.26533200   3.04777200
H    2.83970700   2.18971300   0.77566400