14

C    3.18228400  -1.14087800   0.50503200
O    2.49799100   0.10323800   0.28146000
C    3.12453600   1.21550600   0.17103800
C    2.51097300   2.49583500  -0.05181700
C    3.53136700   3.41815500  -0.10752700
C    4.74818200   2.72366700   0.07674500
N    4.47530700   1.39151000   0.24330600
H    2.40028500  -1.90323500   0.55765600
H    3.72762800  -1.09912100   1.45882700
H    3.85381500  -1.35266400  -0.33939700
H    1.43827600   2.64860900  -0.14999800
H    3.44295900   4.49110700  -0.26371900
H    5.77108500   3.09644500   0.09794400
H    5.17328200   0.67017800   0.39376900