15

N    1.99998600  -0.58836800  -0.99879100
C    2.20915900   0.06059100   0.23306000
C    3.18617400   1.22787400  -0.07418800
C    2.66170600   2.54897500  -0.67971900
N    2.98541400   3.18514900   0.59299400
C    3.43124700   2.09399700   1.24394400
O    3.83619800   1.81191800   2.32282700
H    1.23973500  -0.32137000  -1.62361200
H    2.69155600  -1.23765900  -1.37433800
H    2.69614000  -0.60383400   0.96377800
H    1.26400400   0.44448200   0.64043800
H    4.13806900   0.87194500  -0.49498900
H    1.58669900   2.56562900  -0.91701900
H    3.23909700   2.93001000  -1.53283400
H    2.99367200   4.15920400   0.88784000