16

C    0.91718300  -0.00989700  -0.04129100
C    2.47106700  -0.02889600  -0.02763300
C    3.02353700   0.21425200  -1.45984600
C    3.05369500  -1.27353800   0.64051400
O    3.77565000  -0.76124500   1.78920700
N    3.71203300   0.53021000   1.89928000
C    2.98290200   1.00171700   0.89425900
H    0.49797400  -0.15748900   0.96366900
H    0.56591200  -0.82080800  -0.69472200
H    0.55017900   0.94259800  -0.44593400
H    4.12217200   0.22642500  -1.47724400
H    2.64857900   1.16658500  -1.85753100
H    2.66734000  -0.59610700  -2.11127300
H    3.79741500  -1.83318000   0.05053700
H    2.32073700  -1.98839300   1.04821500
H    2.82534900   2.08315600   0.83228500