13

C    0.35137900   1.38490600   0.54878700
O    1.14741800   0.18773900   0.38151300
C    0.57343800  -0.51231000  -0.75776700
O   -0.16897400   0.41806100  -1.42798100
C   -0.85601500   0.98028700  -0.31627600
C   -1.37924500  -0.27752100   0.37149000
C   -0.36867600  -1.20821600   0.18425200
H    0.91072400   2.22889200   0.12104100
H    0.15610700   1.53999100   1.61540900
H    1.32327400  -1.03850000  -1.35344900
H   -1.57066900   1.75368000  -0.61251400
H   -2.30365100  -0.38479300   0.94301200
H   -0.20184000  -2.16307700   0.68607300