15

N    1.11112100   0.01727600  -0.20379300
C    2.49740600   0.03435300  -0.08888700
C    3.10273900   1.18815000   0.73152200
N    4.29090000   0.59317700   1.29193900
C    4.29161400  -0.75017000   1.32546900
O    5.10273800  -1.52209700   1.75660900
C    2.97146100  -1.26572500   0.71171300
H    0.65644500  -0.42610700  -0.99922600
H    0.51178700   0.26695100   0.58147000
H    2.95591700  -0.02744800  -1.08662200
H    2.40491100   1.53591100   1.51354100
H    3.34694300   2.03898100   0.08042400
H    5.04453100   1.12975100   1.71082900
H    3.11312800  -2.14159500   0.06677700
H    2.28825200  -1.52053600   1.53719900