12

C    0.43704900   1.48865800   0.32147900
C    1.12639000   0.31223100  -0.43949700
C    1.02916700  -1.11139000   0.05948000
C   -0.45657300  -1.31861200   0.05018200
N   -1.11698400  -0.26207000  -0.29379000
N   -0.24672900   0.69048700  -0.63916300
H    0.76827900   2.47687000  -0.01234200
H    0.10031700   1.39212900   1.35965800
H    1.89032600   0.62416300  -1.15940000
H    1.47520500  -1.25792600   1.06093600
H    1.53341000  -1.83705800  -0.60222500
H   -0.98717000  -2.23277000   0.33036300