18

C    0.98945900  -0.13401500   0.32231700
C    2.32538500   0.09325000  -0.29977300
C    3.06123400   1.20519600  -0.21469900
C    2.74087300   2.50374200   0.50248000
C    3.61654200   3.54389800  -0.20585700
N    4.64945900   2.77278200  -0.84340100
C    4.41389600   1.36886400  -0.85730400
H    1.04470200  -0.97511400   1.03125000
H    0.25454000  -0.42181300  -0.44499200
H    0.60927400   0.74268500   0.86232700
H    2.73773500  -0.74581700  -0.87280900
H    3.01165100   2.44391800   1.56937000
H    1.67859500   2.77200900   0.44764200
H    3.08102400   4.09214900  -1.01118200
H    4.06785800   4.31912900   0.43603700
H    5.47479800   3.19937900  -1.27192400
H    4.51994900   0.97454200  -1.88770600
H    5.24067600   0.88510400  -0.28411400