14

C    0.90078900   0.03470000  -0.00916700
C    2.39675900   0.01288000  -0.00132100
C    3.27310000   1.06908300   0.00546700
N    4.59267600   0.60423000   0.01094800
C    4.61035600  -0.72135300   0.00803000
C    3.22627100  -1.14538600   0.00012500
O    2.91484500  -2.40708000  -0.00429600
H    0.52779500   1.06629300  -0.00244800
H    0.48873200  -0.46985200   0.87818900
H    0.49836700  -0.45502900  -0.90915800
H    3.06784700   2.13852400   0.00698900
H    5.41591400   1.20018600   0.01646900
H    5.51421600  -1.32905900   0.01119000
H    1.95683900  -2.55918800  -0.00949800