16

O    1.43514800   0.05784200   0.96093800
C    2.45252800   0.07611100   0.22113000
C    3.06463300  -1.30759800  -0.00220200
C    3.96583600  -1.27823300  -1.23625200
C    4.90288800  -0.07780700  -1.18700400
C    4.11347700   1.22176600  -1.20789500
N    2.95388700   1.16395200  -0.29406200
H    2.25130400  -2.04354300  -0.07127000
H    3.62403100  -1.51978500   0.92468400
H    4.53140300  -2.22186200  -1.23985900
H    3.35557000  -1.26749600  -2.15268000
H    5.52917900  -0.12501000  -0.28173300
H    5.58718700  -0.08005000  -2.04580900
H    4.72908100   2.07326500  -0.88922100
H    3.72128300   1.44086200  -2.21272900
H    2.47448000   2.04104900  -0.09065200