16

C    0.90173600   0.05075800   0.18723100
C    2.40838400  -0.10801200   0.07195100
N    3.22385300   0.86029900   0.76784700
C    4.08494700  -0.09387100   1.40498200
C    3.17543900  -1.22669200   0.85424900
C    3.79368700  -2.28855200   0.08340400
C    4.30802900  -3.16784800  -0.56396900
H    0.43412700  -0.80959700  -0.31091100
H    0.55804300   0.96496400  -0.31631600
H    0.58282200   0.06637100   1.23834400
H    2.71033100  -0.09632600  -0.99804500
H    3.14187200   1.87885500   0.86639600
H    5.11225600  -0.05696200   0.99199900
H    4.15662700   0.04911800   2.49816300
H    2.53795800  -1.63677700   1.65352900
H    4.76367500  -3.95896400  -1.13513700