15

C    1.01339800  -0.04572400   0.04160800
C    2.51554000  -0.03252400   0.14058700
C    3.12585900   1.24352400   0.77644500
C    4.38372400   0.73756400   1.45169000
O    5.27125600   1.26092700   1.99933800
C    4.27755800  -0.92444000   1.26930200
O    2.97055100  -1.05572900   1.04208600
H    0.67037500  -0.99125500  -0.39824800
H    0.68084400   0.77316900  -0.61134400
H    0.55333700   0.07690700   1.03207000
H    2.98872800  -0.20708700  -0.84257500
H    2.49326200   1.64890700   1.58760500
H    3.35903000   2.06260800   0.07998300
H    4.94070200  -1.01221200   0.38148300
H    4.63431900  -1.48214600   2.14390700