11

N    1.09020700  -0.25894100   0.00000000
C    2.38306500  -0.12917000   0.00000000
C    3.04551200   1.14092900  -0.00000000
C    2.32926900   2.33820100  -0.00000000
C    1.71449400   3.39345600  -0.00000000
C    4.46578200   1.14937500  -0.00000000
N    5.62638400   1.13674700  -0.00000000
H    0.65237800  -1.17951200   0.00000000
H    0.47207000   0.55522000   0.00000000
H    2.98792500  -1.04182200   0.00000000
H    1.18515400   4.33560200  -0.00000000