17

C    1.93041000   0.17407700  -0.85892200
C    1.92626800  -0.11303200   0.58205900
C    0.47848100  -0.01959600   0.26510600
C   -0.39165000   1.17659800   0.40905900
C   -1.63909300   0.74455400  -0.37045900
O   -1.70415300  -0.65241200  -0.14927500
C   -0.42319200  -1.16644800  -0.05432900
H    1.96790300   1.20108800  -1.23195100
H    1.99515600  -0.63501300  -1.59141500
H    2.26852800  -1.11632800   0.86132300
H    2.28844800   0.70019600   1.22308600
H   -0.61756900   1.24886700   1.49393800
H    0.06467200   2.13158500   0.11378900
H   -2.56642000   1.20069000  -0.00578000
H   -1.53335600   0.96873400  -1.44827800
H   -0.09802200  -1.68066700  -0.98776500
H   -0.36631200  -1.93829300   0.74049400