15

C    1.08691500  -0.06805900   0.37517700
C    2.57562700  -0.17938600   0.06643700
C    3.27209600   1.14483200   0.17392600
O    2.81417300   2.20099800   0.45082700
N    4.73587500   1.15345700  -0.08957200
C    5.49999600   0.14663300  -0.41643500
N    6.80989200   0.20662800  -0.50757100
H    0.61775800  -1.05546800   0.28378700
H    0.59087000   0.61974500  -0.32198600
H    0.92343400   0.30236300   1.39553900
H    2.73412400  -0.57191900  -0.95400800
H    3.06651700  -0.88576200   0.75973500
H    5.14968800   2.08500800   0.02110200
H    5.03773000  -0.85086000  -0.53308700
H    7.33728700  -0.11982300  -1.32663000