20

C    2.09073800   1.14784200   0.10806900
O    3.42150800   1.63135200   0.06379900
C    4.28340500   1.00304000  -0.84768900
C    5.51559300   1.89313800  -0.95450000
C    6.48731400   1.48195000  -2.05358200
C    4.96081500   3.33237700  -1.15417600
N    5.77006100   4.35942900  -0.72411900
H    1.54342300   1.76805400   0.82669700
H    2.07955800   0.10188100   0.45354400
H    1.61158100   1.21058300  -0.88308700
H    3.79503300   0.88324900  -1.83439200
H    4.57159400   0.00034300  -0.48576700
H    6.02049200   1.87625000   0.02679900
H    6.01233000   1.51667400  -3.04551600
H    6.83454500   0.45274700  -1.88026400
H    7.37303000   2.13169900  -2.07018700
H    4.04055200   3.21474800  -0.45096500
H    4.55986300   3.53237800  -2.15885800
H    6.31603600   4.27146800   0.13337900
H    5.80241400   5.26126200  -1.19785800