15

C    1.33495900   0.35383100   0.21060800
C    2.74873400   0.10434600   0.08438300
C    3.95680200  -0.14027700   0.00456600
C    5.39889300  -0.31873500  -0.18239700
O    5.85481600  -1.03993000  -1.24128900
C    5.38226100   1.19991500  -0.30069800
C    5.52615300   2.04163800   0.77434100
H    1.14215900   1.07501000   1.01975400
H    0.83092900  -0.59097900   0.47920900
H    0.90894500   0.72204000  -0.73345400
H    5.89790400  -0.66365700   0.73390200
H    5.33486800  -0.88926800  -2.03999500
H    5.25518300   1.59919800  -1.31334100
H    5.59753700   1.65538600   1.79594200
H    5.59175500   3.12320900   0.62929800