13

O    0.97628500   0.82340100  -0.40026900
C    1.95821000   0.38711300   0.09705600
C    3.28486900   1.26480400   0.14979100
C    3.80137100   1.39971200  -1.30328300
N    3.28443800   2.64686600  -1.77866300
C    2.84818500   3.31621600  -0.73059400
N    2.92936300   2.62587600   0.41165700
H    2.05917700  -0.64024100   0.51036900
H    3.98154300   0.85767600   0.89509500
H    3.53156200   0.57882100  -1.98524300
H    4.91023100   1.45748800  -1.32206400
H    2.47348200   4.34252800  -0.76829200
H    2.62146900   2.97753200   1.31940300