17

C    4.02111500  -0.93646200   0.66473000
C    3.65254800   0.35416500   1.37827100
C    3.24856200   1.51743600   0.45030700
C    2.82220100   2.80545100   1.14667600
O    3.94961800   3.31043700   1.80005600
C    4.56639600   1.92562100  -0.28587200
O    5.01276600   1.44477600  -1.25690200
H    4.20093000  -1.72938300   1.40308800
H    4.94334000  -0.84008000   0.07043900
H    3.21434700  -1.27500700  -0.00148500
H    4.44095900   0.68199600   2.07362900
H    2.75023500   0.19373100   1.99603900
H    2.52020000   1.18638000  -0.30598400
H    2.02639700   2.53162100   1.86689500
H    2.39226300   3.52630300   0.43079100
H    3.83884000   4.23707600   2.05136000
H    5.04460900   2.76499600   0.33615900