14

O    1.58697800  -0.63148900   0.42932700
C    1.71663200   0.66969900   0.36676200
O    0.82259300   1.44782800   0.40791700
C    3.21723800   1.23371800   0.22817700
C    3.25915700   2.42094000  -0.76907800
C    3.19433000   3.32419500   0.48042400
N    3.46003200   2.15752000   1.27569100
H    2.40916700  -1.12947400   0.33690900
H    3.94486600   0.40777800   0.16263400
H    2.42750000   2.49683700  -1.47744400
H    4.22355500   2.48230400  -1.28847600
H    3.91247100   4.14930100   0.62196800
H    2.17158400   3.70312200   0.69966300
H    3.69600000   2.03016100   2.26444600