18

C    1.02001600   0.01679400  -0.38296700
C    2.46973100   0.23070000   0.00786600
O    3.37386100  -0.39377800  -0.90071100
C    2.89587900   1.69126000   0.14363200
C    2.09253700   2.73229600   0.38896300
C    4.38588600   1.82440400  -0.03060700
N    4.85455300   3.01013400  -0.54913500
H    0.34416800   0.40084900   0.39273700
H    0.81887900  -1.05815600  -0.48654400
H    0.78243000   0.52406900  -1.33120500
H    2.66125900  -0.25605400   0.97990900
H    2.96251700  -0.48820200  -1.77039200
H    1.01640600   2.59725200   0.51577300
H    2.47237100   3.74904300   0.51325400
H    4.52586600   0.94483600  -0.79424000
H    4.99643600   1.47493700   0.81962000
H    4.29605000   3.54231100  -1.21651600
H    5.78632600   3.36233400  -0.33453600