16

C   -1.76537600   0.62969500   0.19350300
O   -1.61231200  -0.72311600  -0.32835000
C   -0.28056400  -0.68968400   0.13171400
C    1.06375000  -1.10052600  -0.47151600
N    1.85333000  -0.00151500   0.07848100
C    1.09252400   1.14494200   0.60702500
C   -0.24120500   0.80177800  -0.02275000
H   -2.43105900   1.24198600  -0.42532900
H   -2.09509200   0.61664000   1.24467200
H   -0.25549300  -1.00198100   1.19771800
H    1.52365300  -2.05991600  -0.18471200
H    1.08136200  -1.03215500  -1.58062600
H    2.87663200  -0.04447100   0.13221100
H    1.12507500   1.07993600   1.71523300
H    1.60075800   2.07769800   0.31411100
H   -0.14592200   1.01609900  -1.09953700