15

C    0.98517900  -0.01106100  -0.00891600
N    2.43076600   0.08846600   0.00085100
C    3.19256400   1.15148100   0.00748600
C    4.55512300   0.69245400   0.01497900
C    5.79045200   1.48164000   0.02547500
C    4.40432600  -0.75817800   0.01164100
N    3.16022000  -1.10426500   0.00326100
H    0.55107800   0.99447600  -0.00660900
H    0.66895000  -0.57351300   0.88033800
H    0.68022900  -0.56441400  -0.90781800
H    2.79943000   2.16805900   0.00679800
H    5.60641100   2.56177100   0.01428900
H    6.41944300   1.20532300  -0.84031900
H    6.39242700   1.22097200   0.91545600
H    5.19622200  -1.50820500   0.01520700