17

C    0.94976000   0.03089900   0.01868100
C    2.57103900  -0.01600900   0.00771500
C    3.01772200  -0.77408900   1.27381600
N    2.88285300  -0.74705000  -1.15322500
C    3.06275300   1.39740200  -0.10079500
N    3.43696000   1.98894000   0.96217800
O    3.81942300   3.25107700   0.76323200
H    0.57732600   0.57485500  -0.85784600
H    0.69594700   0.56991400   0.94048400
H    0.54419200  -0.98838400   0.04671900
H    2.68449000  -0.21180300   2.15343100
H    4.11263200  -0.84595600   1.29780900
H    2.57771100  -1.78087200   1.30337000
H    3.20287400  -0.30147300  -2.01684500
H    2.68269400  -1.74866600  -1.19812700
H    3.03917900   1.91552400  -1.07262300
H    4.07959700   3.58260200   1.63314500