15

C    2.88698800  -1.09461900   0.53401000
N    2.61181500  -0.07162100  -0.46886900
N    3.28043200   1.12469200  -0.26525700
C    2.64686600   2.27564600   0.06178400
C    3.62572800   3.31643800   0.19635700
C    4.84940400   2.75342700  -0.06231800
C    4.62234300   1.37198700  -0.34912800
H    2.29549400  -1.97941700   0.26780000
H    2.54682000  -0.74603400   1.51857300
H    3.95028200  -1.38733600   0.59669500
H    2.76367900  -0.38287200  -1.42631700
H    1.56206200   2.29352000   0.17524400
H    3.40625200   4.35038200   0.45647000
H    5.82382900   3.23844400  -0.05534800
H    5.33119500   0.58325900  -0.60573600