8

O    1.01224400   0.07806600   0.00000000
N    2.28737400  -0.08187700   0.00000000
C    2.91962800   1.09713600   0.00000000
C    4.29842200   1.07641700   0.00000000
C    5.52789700   1.08948800   0.00000000
H    0.60427600  -0.81204100   0.00000000
H    2.35440100   2.04153300   0.00000000
H    6.61118900   1.09469600   0.00000000