21

C    1.06780400  -0.01334600  -0.18151100
C    2.55684200  -0.03668300   0.12284300
C    3.03030300   1.14797400   0.98944100
C    4.45725700   0.93114600   1.30349100
C    4.37761400  -1.10847800   1.42940300
C    5.55859500  -1.61323400   0.70421400
C    2.99842700  -1.30901100   0.89056700
H    0.77965600  -0.88559700  -0.78485500
H    0.80459200   0.89080200  -0.74863600
H    0.47024200  -0.02392300   0.74267100
H    3.12371300  -0.00491900  -0.82377900
H    2.42417200   1.24015000   1.90306600
H    2.94487500   2.09819100   0.42828700
H    5.17383900   0.95611100   0.47419300
H    4.87052400   1.19569600   2.28269500
H    4.48177600  -1.02138200   2.52093900
H    5.46625500  -1.51694400  -0.38759100
H    5.59076900  -2.70260700   0.92257100
H    6.50867300  -1.19700300   1.06434100
H    2.97659600  -2.18223100   0.22104100
H    2.29955100  -1.48301600   1.72369300