14

C    3.09568200  -1.39392200  -0.13358400
C    2.58997100  -0.00005400  -0.20509600
O    1.48347800   0.39317100  -0.40086300
N    3.57465300   1.10874900  -0.00862500
O    3.03995800   2.30459700  -0.08833200
C    4.89493100   0.99639900   0.23075200
C    5.71825500   2.08292800   0.39739700
H    3.85522400  -1.57639400  -0.90865900
H    2.24437600  -2.06436900  -0.29882700
H    3.53372600  -1.60262700   0.85409100
H    2.08017600   2.13291300  -0.26663000
H    5.26329100  -0.02863800   0.28260300
H    5.33805400   3.10520000   0.34333800
H    6.78026500   1.92095500   0.58886500