19

C   -1.03178000   5.03213900  -0.11848200
C   -0.12062800   4.26986800   0.84009700
C    0.37241600   2.98356300   0.21243700
O    1.23286000   2.29738700   1.10706100
C    1.68214700   1.01266500   0.77088100
O    2.94880200   1.32862700   0.31312900
C    4.04952100   1.17330600   1.19445900
H   -1.38836400   5.95320200   0.36052200
H   -1.91657100   4.44058700  -0.39718400
H   -0.50375800   5.31875400  -1.04013700
H   -0.65693100   4.02192900   1.76905300
H    0.74838900   4.88462300   1.12054000
H   -0.43543800   2.28812500  -0.09050600
H    0.96939600   3.18937400  -0.70308800
H    1.09729700   0.56107300  -0.04511800
H    1.67917100   0.38925400   1.67872400
H    4.94889100   1.39974900   0.61244300
H    4.06907400   0.14798700   1.59773700
H    3.95717900   1.89527900   2.02469900