19

C    0.90699200   0.05331200   0.01637900
C    2.42278900  -0.10105300  -0.09993100
C    2.82302100  -0.91606000  -1.32833000
C    3.06338500   1.31238700  -0.11065600
C    4.56249600   1.23940700  -0.20130200
N    5.28511800   0.89290400   0.83281800
N    5.13786400   1.60797400  -1.34088200
H    0.62165500   0.63033600   0.90782300
H    0.43377100  -0.93575200   0.09087100
H    0.49125900   0.55908100  -0.86877600
H    2.78755500  -0.62459200   0.80140000
H    2.53449900  -0.40091100  -2.25976000
H    2.30995700  -1.88754000  -1.32481400
H    3.90334400  -1.13424400  -1.36241600
H    2.80964900   1.87255100   0.80374000
H    2.68042700   1.89278300  -0.96385300
H    4.84355400   0.68538400   1.72431100
H    6.29914200   0.82575900   0.77626100
H    4.85504100   1.14087000  -2.21116200