15

O    1.60974800   0.19352300   1.27414000
C    2.59083500   0.27899100   0.43512900
C    2.47690600   0.71891100  -0.96120400
C    3.79313300   1.19130300  -1.59466000
C    4.51086200  -0.08238200  -1.91840100
C    3.71213400  -1.18127000  -1.70326300
C    2.45597700  -0.77434700  -1.19970600
H    0.76868900   0.54312400   0.93872500
H    3.56276700   0.01886700   0.86886700
H    1.56246800   1.27884400  -1.20004800
H    4.37580000   1.87023100  -0.95319300
H    3.58600200   1.75303800  -2.52337000
H    5.52949300  -0.11274800  -2.30929900
H    3.98412400  -2.21564600  -1.91542500
H    1.57696600  -1.41003000  -1.07839700