13

N    1.08581600  -0.14550000  -0.27227300
C    2.44408600   0.03535500   0.02379100
C    2.94308800   1.37997400  -0.00248900
C    3.35845200   2.52144200  -0.02666500
C    3.84905900   3.89902600  -0.05842300
O    2.80191300   4.74836300  -0.38974300
H    0.67586900  -1.07999500  -0.26849200
H    0.47560600   0.64269600  -0.49730800
H    3.04900900  -0.62462500  -0.65238600
H    2.66277800  -0.44878600   1.01195100
H    4.68864100   3.92388000  -0.78351000
H    4.29101900   4.10522000   0.93827400
H    3.12543100   5.65496000  -0.40973800