15

C    2.08840000  -0.09340200  -0.09587400
C    0.81931000  -0.85019800   0.23767600
C   -0.39540300  -1.42461000  -0.42229000
C   -1.52458300  -0.39276800  -0.20473000
N   -1.38008200   0.77091700   0.34064300
N   -0.13887600   1.22119000   0.54264800
C    0.82791700   0.65458100  -0.28732700
H    2.61691700  -0.27357300  -1.03571500
H    2.73248800   0.06560800   0.77140700
H    0.73365700  -0.90941000   1.33037000
H   -0.71968100  -2.38084600   0.01476700
H   -0.28648000  -1.57666100  -1.51092400
H   -2.54632500  -0.66350200  -0.49080600
H    0.01526900   1.79895700   1.37237500
H    0.50382200   0.70355200  -1.33140800