17

C    0.92120300   0.05857000  -0.01286100
C    2.42322400  -0.03323800  -0.08569300
O    2.96927000   1.29777400  -0.04270700
C    4.31383500   1.42260100  -0.10265700
C    4.81845300   2.75762100  -0.05340600
C    5.30144600   3.89135700  -0.01477200
C    5.84660500   5.21951200   0.03170800
H    0.49747200  -0.95446500  -0.04469400
H    0.52048400   0.62754300  -0.86246700
H    0.60158400   0.53752000   0.92233000
H    2.76193500  -0.51207900  -1.02142500
H    2.84280500  -0.60236700   0.76263700
H    4.75347000   0.93340700  -1.01686900
H    4.83971500   0.83607900   0.70196000
H    5.43463300   5.81308400  -0.80309800
H    6.94380600   5.20776700  -0.02495700
H    5.52487900   5.71421300   0.96482300