14

C    1.52404400   0.15851700   0.67734700
C    2.23345400  -0.20645900  -0.58521000
N    2.29865100  -1.41930500  -1.13833500
N    2.88006500   0.72013300  -1.26892600
C    3.67156800   1.00113300  -2.41944000
C    3.29696900   2.07525500  -1.42714800
H    1.93232100  -0.43430700   1.50982900
H    0.45653200  -0.09123100   0.58170700
H    1.62222000   1.22425900   0.91527100
H    1.78370800  -2.10973800  -0.57739500
H    3.14615700   0.94797300  -3.37919000
H    4.68601600   0.58785700  -2.40666500
H    4.04683100   2.42877800  -0.71029400
H    2.50539000   2.78897300  -1.68246800