11

O    2.24137400   0.74241200   0.99542000
C    2.28039800   0.14543200  -0.02483400
C    3.07146200  -1.32514000   0.06698400
C    2.08863900  -2.33062200  -0.04509400
C    1.20548600  -3.17709700  -0.12555100
C    1.79022500   0.47951000  -1.30879500
C    1.38707900   0.75461200  -2.41616100
H    3.60314300  -1.32238100   1.02801200
H    3.75588000  -1.26010400  -0.79598100
H    0.44291000  -3.94040900  -0.19522200
H    1.01986400   1.01517900  -3.39869600