14

N    1.35900200   0.40018200   0.68250700
C    2.12573800  -0.14919800  -0.30732400
C    1.90083500   0.24453500  -1.68798200
C    2.44800200  -0.41990000  -2.72799000
C    3.92499600   0.62432300  -0.02788100
O    3.79832500   1.59694800   0.78794100
O    4.79571700   0.10735900  -0.60221600
H    1.19497400  -0.13783600   1.53005300
H    0.59598300   1.02334200   0.42582900
H    2.49085700  -1.16705000  -0.11502500
H    1.25661100   1.11252400  -1.86705300
H    3.12327700  -1.26840900  -2.58245300
H    2.22741000  -0.12536000  -3.75630700
H    2.86975900   1.64387000   1.10654500