12

C    1.07712900   0.32590600   0.64373100
C    2.29290200   0.08744800  -0.00538500
C    2.73762600  -1.31903900  -0.32354100
C    4.02711100  -1.39146900  -1.00010600
N    5.04946600  -1.41018400  -1.53471100
C    3.08201800   1.17587800  -0.35044200
C    3.80667400   2.11611200  -0.67085900
H    0.75512700   1.34514600   0.87511200
H    0.42576300  -0.50587500   0.93162200
H    1.96178100  -1.80420600  -0.94423800
H    2.77512000  -1.90025000   0.61630300
H    4.44720100   2.94213500  -0.95477400