16

C    1.06181500  -0.30539000  -0.12350600
O    2.38064400   0.07121200   0.14555300
C    2.86021400   1.38542000   0.00648600
C    2.26633400   2.15657600  -1.17827500
C    2.47542000   2.07529600   1.38988400
C    4.32139400   1.27056300  -0.07146700
N    5.47243200   1.22801900  -0.14597700
H    0.79449000  -1.07733300   0.61353500
H    1.09852500  -0.80895900  -1.11649600
H    0.36708500   0.54282100  -0.16303800
H    2.43040800   1.59628100  -2.10999500
H    2.79824100   3.11477100  -1.24900300
H    1.19847800   2.36947400  -1.04239900
H    2.89655900   1.50735500   2.22776900
H    1.38357700   2.15432700   1.46466000
H    2.93167000   3.07443000   1.33933900