15

C    0.93836000   0.04092200  -0.00874900
C    2.43232100   0.02396600  -0.00153200
C    3.22355200   1.19723900   0.00838600
S    4.92835700   0.91022400   0.01502000
C    4.62396200  -0.77182000   0.00470100
C    3.23704700  -1.11849800  -0.00376200
C    2.77216700  -2.53234100  -0.01353800
H    0.54456500   1.06433100  -0.00181500
H    0.54221500  -0.48631000   0.87248800
H    0.55118100  -0.47069100  -0.90313900
H    2.84390000   2.22261100   0.01199800
H    5.45465600  -1.48322700   0.00490000
H    1.67853200  -2.60111800  -0.01992700
H    3.15143600  -3.06844600   0.87105700
H    3.16116400  -3.05942900  -0.89931600