16

N    2.81484700  -0.54461200  -1.34182900
C    2.88898400  -0.49003500   0.09265800
C    2.79496500   1.00511700   0.15498800
C    3.89777500   1.81995700   0.12067400
C    3.84283800   3.27298100   0.17708600
C    4.82573900   4.00748500   1.03566300
O    4.97793100   3.92928000  -0.34145600
H    1.92019600  -0.48481100  -1.82459600
H    3.64997000  -0.43474000  -1.91380200
H    3.83852900  -0.89938100   0.45729600
H    2.04798500  -1.01234400   0.56235400
H    1.79084100   1.44188900   0.13271300
H    4.90340700   1.38260700   0.07367200
H    2.87484100   3.75414300  -0.00927600
H    5.55294200   3.45242500   1.64044300
H    4.48796100   4.96811800   1.44216100