16

C    0.83496000   0.00238500   0.09769000
C    2.29415500  -0.14049700  -0.05356700
C    2.83623100  -1.42796100  -0.51883000
C    3.11400600   0.97598800   0.27436000
C    4.55658300   1.20064300   0.02855900
C    5.25078600   0.32255300  -0.90760100
N    5.79058300  -0.36548900  -1.66025600
H    0.49194300   1.03177400   0.25481300
H    0.53602000  -0.61071700   0.97378100
H    0.31259800  -0.45894300  -0.75664400
H    2.09180400  -2.23061200  -0.45227700
H    3.77184800  -1.71559200  -0.01699500
H    3.11146400  -1.30905100  -1.58891400
H    2.62060500   1.79325900   0.81443800
H    5.05990100   1.16827800   1.02033600
H    4.69303500   2.25259200  -0.28636200