15

C    0.96541700   0.05469600  -0.40841500
C    2.35023800  -0.06829100   0.24457400
C    3.09547300   1.15949000   0.29728000
C    3.74658000   2.20722700   0.28869300
C    4.39302700   3.45457300   0.54717000
C    5.33118300   4.19789900  -0.31460800
O    3.99858500   3.78728400   1.65892400
H    0.48169500  -0.92983400  -0.38950200
H    1.04769000   0.37980900  -1.45377200
H    0.33005900   0.76329700   0.13870200
H    2.98568700  -0.80898600  -0.27721300
H    2.27685200  -0.43287700   1.28792100
H    6.19460400   3.54642600  -0.52650800
H    5.65343700   5.12812800   0.16810200
H    4.82830600   4.40647900  -1.27287900