12

C    2.03379600  -1.14035400  -0.31997300
C    3.16359500  -0.40892800  -0.27433900
C    3.14560700   0.99843500   0.10501600
O    2.17866400   1.63335100   0.45366600
C    4.48873800   1.82165100   0.12919500
C    5.30149200   1.47460300  -1.01608100
N    5.93890300   1.17127300  -1.93244500
H    2.08599000  -2.19026200  -0.62304800
H    1.04781000  -0.73531100  -0.07449800
H    4.14850600  -0.80735400  -0.53455400
H    4.96162700   1.51129200   1.07979200
H    4.26221600   2.89644100   0.17088100