17

C    1.47298500  -0.59645900   0.13966300
N    2.72362400   0.16331500   0.13410200
C    3.85227700  -0.28788900  -0.36675900
O    4.13392500  -1.32299200  -0.88922200
C    5.21077900   0.81275400  -0.23100600
C    5.78737200   0.90964400  -1.62759700
N    4.81438900   1.98961600   0.34269400
H    1.07086300  -0.62847400   1.16021200
H    1.67037400  -1.61830000  -0.20202600
H    0.74364600  -0.12366900  -0.53144900
H    2.73346600   1.10798400   0.50627800
H    5.80585700   0.20018300   0.46373800
H    5.09795900   1.41569100  -2.32012800
H    5.99632800  -0.09465300  -2.01610000
H    6.72584600   1.48055600  -1.58211800
H    4.61691400   2.80563900  -0.23196900
H    4.88027400   2.14063200   1.34554900