17

C    0.86073700  -0.20318300  -0.17154000
C    2.35889200  -0.21582200  -0.18283000
O    2.99339900  -0.13528300  -1.50299100
C    3.14823900   0.93189400  -0.65687600
C    4.60672500   1.23487400  -0.32740600
C    4.53982900   2.37269600   0.73306900
O    3.73832200   3.41060600   0.30575600
H    0.52845300   0.00730200   0.85547300
H    0.47120300  -1.18734000  -0.46412300
H    0.45371100   0.56559700  -0.84137700
H    2.85716200  -0.98099600   0.42476300
H    2.62179200   1.87769200  -0.93028300
H    5.12224800   1.58508800  -1.23445100
H    5.12863000   0.34519600   0.05244700
H    5.59032200   2.68254800   0.90033300
H    4.12284000   1.99107400   1.67428200
H    4.19922800   3.97375100  -0.33215600