23

C    1.54800400   0.61513700   1.52006500
C    2.93278100   1.31524000   1.46784000
C    3.55763100   0.91170600   0.18981900
C    5.37153100   1.72099400  -0.06045400
C    6.11867500   1.16697400   1.11181300
C    5.71206700   1.14112100  -1.39956400
C    5.06074700   3.18452300  -0.03083600
H    1.06277600   0.90122400   2.46371200
H    1.64367600  -0.47903700   1.50101600
H    0.90011900   0.93126200   0.69118000
H    3.52680100   0.98934600   2.33274900
H    2.78215400   2.40217700   1.52235600
H    3.12289900   1.32085600  -0.72980600
H    3.88561500  -0.13074300   0.10129500
H    5.76221500   1.55499400   2.07397000
H    7.16518600   1.50902800   0.99410700
H    6.14641400   0.06893100   1.12536500
H    5.03489000   1.47368700  -2.19738700
H    5.78012700   0.04522500  -1.38932000
H    6.71941100   1.52295600  -1.65314000
H    4.34945700   3.48986300  -0.81028800
H    6.01430100   3.70203500  -0.25208400
H    4.72728600   3.53557000   0.95350000