11

N    1.04383700   0.03508200  -0.00000000
C    2.36363000  -0.01530900  -0.00000000
N    3.06162100  -1.18233900  -0.00000000
C    3.10936700   1.19141500  -0.00000000
C    3.74788200   2.22442300  -0.00000000
C    4.48843600   3.51386700  -0.00000000
O    3.88443100   4.54418000  -0.00000000
H    0.55337500   0.93136800  -0.00000000
H    0.47341500  -0.81122100  -0.00000000
H    2.44703800  -2.00998100  -0.00000000
H    5.59469600   3.42995100  -0.00000000