19

C    0.88813700  -0.03909300  -0.21184100
C    2.31665100  -0.32111500   0.11860900
N    2.69242900  -0.29866400   1.40208800
C    3.35301700  -0.54279600  -0.92957400
C    3.65086700   0.90642300  -1.11074900
C    2.86399400   1.77853700  -2.03242000
N    4.61010700   1.46560100  -0.36496600
H    0.68889400  -0.16573200  -1.28195500
H    0.59315300   0.98428400   0.07577400
H    0.23621900  -0.73568100   0.33925600
H    3.58146400  -0.67522400   1.70802700
H    2.04440300  -0.01981100   2.12982300
H    2.94450900  -1.00625400  -1.83572000
H    4.21719300  -1.12604100  -0.57403300
H    2.16141300   1.19545700  -2.63838600
H    3.54777200   2.30432700  -2.71802100
H    2.29280500   2.54708000  -1.48462400
H    5.30640900   0.91113800   0.11828200
H    4.75007400   2.46945000  -0.36348600