16

O    1.06596700  -0.19537500  -0.13064100
C    2.36731800   0.08651400  -0.06940700
C    3.31748500  -0.54542000  -1.09554900
N    4.28313900  -0.33629400   0.01705700
C    3.36714300  -0.73123400   1.03326800
C    4.44987400   1.11862300   0.11222200
C    2.92483100   1.51307000   0.10759000
H    0.57652400   0.19483900   0.60669400
H    3.56331500  -0.00442600  -2.01681200
H    3.12462900  -1.60916200  -1.28159500
H    3.09694200  -1.79354300   1.01414400
H    3.53445400  -0.32156000   2.03624900
H    4.97417100   1.38734800   1.03695100
H    5.00365900   1.49382100  -0.75695000
H    2.63354300   2.17064000  -0.72322400
H    2.62539900   1.98683700   1.05330000