19

C    0.85554200   0.21476200   0.02750200
C    2.32807100   0.38887900  -0.16874000
N    2.78438600   0.40056400  -1.42760900
C    3.20325300   1.02825800   0.89272100
C    4.17332900  -0.11601900   1.20378000
C    3.31131300  -1.31007500   0.90061100
N    3.75910000  -2.33972600   0.18020600
H    0.61348200  -0.07145100   1.05839300
H    0.43787400  -0.53511500  -0.65998900
H    0.35234500   1.17691100  -0.17412300
H    3.71158000   0.73852700  -1.65650500
H    2.21701300   0.06233000  -2.19622100
H    2.59013600   1.28029200   1.76845500
H    3.68830800   1.95532200   0.55003300
H    5.04170400  -0.09740900   0.52642400
H    4.56478400  -0.11925600   2.23357200
H    2.46715800  -1.52817600   1.56205800
H    4.62814000  -2.28515300  -0.33834000
H    3.23529200  -3.20405400   0.10733100