14

C    4.16699600  -0.77395100   2.69255800
C    4.19837800  -0.43606000   1.49060200
C    4.18584800  -0.05537800   0.12571200
C    4.40370500   1.42775700  -0.19431300
C    5.85253500   1.86019100   0.10277300
C    6.05243800   3.27062600  -0.21239100
N    6.17741400   4.39025200  -0.46703900
H    4.14419600  -1.07475900   3.73576500
H    3.14779000  -0.35914500  -0.19190600
H    4.81746500  -0.75787700  -0.45547100
H    3.69732500   2.04536800   0.37890300
H    4.17725200   1.57640500  -1.25921100
H    6.57116800   1.26335400  -0.48117600
H    6.08881600   1.70603200   1.17051100