19

C    1.03725900   0.37213200  -0.01454400
C    2.44747900  -0.20066800  -0.03253400
C    2.65458400  -1.21466500  -1.15652200
C    3.52749200   0.92534500  -0.22109100
N    3.49197300   1.88987800   0.83961000
C    2.87283900   3.08547300   0.80107900
N    2.33094100   3.46518400  -0.31988500
H    0.84589300   1.01533600   0.85810800
H    0.30820000  -0.44988200   0.03399600
H    0.82442400   0.94870100  -0.92888900
H    2.65886800  -0.69242400   0.93235400
H    2.46297300  -0.76265800  -2.14158500
H    1.95199700  -2.04999600  -1.02805200
H    3.67226100  -1.63059500  -1.15505800
H    3.34927000   1.44791100  -1.17003100
H    4.52492500   0.46136600  -0.20627200
H    3.90465200   1.61591600   1.73518900
H    2.88905400   3.66053500   1.73788700
H    1.82937500   4.35474600  -0.22421000