15

C    1.30984800  -0.07726400  -0.53172600
O    2.73937300  -0.12034300  -0.38026800
N    3.27513300   1.05354200  -0.21148900
C    4.58633800   0.96891500  -0.07536200
N    5.24647200   2.11125800   0.10370100
C    6.61444700   2.24351000   0.26633000
C    7.19744100   3.44325200   0.44235200
H    1.00767400  -1.11844500  -0.67724200
H    1.05751000   0.53425000  -1.40766200
H    0.86284700   0.34012400   0.37990200
H    5.13450200   0.01936700  -0.10377100
H    4.66951600   2.95791700   0.11931100
H    7.17831800   1.30819600   0.24097000
H    6.62543400   4.37503600   0.46648800
H    8.27918400   3.50652600   0.56708700