12

O    1.35335400  -0.22834800  -0.70346500
C    2.57921400  -0.09099600  -0.09215900
C    2.95956800   1.33068900  -0.04625600
C    2.13908100   2.39254000  -0.57566500
S    2.87190200   3.87268200  -0.35678400
C    4.24602200   3.02525400   0.43238000
N    4.12321500   1.74340700   0.50369700
H    1.08790600  -1.15309400  -0.73941400
H    3.41587500  -0.62291300  -0.60247600
H    2.61925900  -0.46069100   0.95899200
H    1.16793400   2.24961100  -1.05568000
H    5.10175800   3.59549300   0.80898000