14

O    1.41380500  -0.00630500   0.91271400
C    2.38474100   0.10900200   0.21490600
C    3.15076600  -1.31428400  -0.10238500
O    3.88709800  -1.15320900  -1.21027700
C    4.85437400  -0.11470800  -1.13727400
C    4.09200900   1.20115500  -1.21576900
N    2.96540100   1.18635500  -0.28347600
H    2.38325400  -2.08436300  -0.23988200
H    3.72865700  -1.44318100   0.83384500
H    5.42777500  -0.20232900  -0.19935800
H    5.52533300  -0.23128000  -1.99516100
H    4.76003500   2.02930400  -0.94346800
H    3.71550000   1.36704100  -2.23556000
H    2.51579200   2.07383000  -0.05874300