21

C    2.84697300  -1.33654400   0.12167500
C    2.31402300  -0.14523200   0.90696700
C    2.85368400   1.21719000   0.50833600
C    2.31369800   2.37547300   1.32081100
C    4.54000300   1.24449500   0.47894600
C    5.02582300   0.94437100   1.78881300
C    5.43114200   1.91822300   2.70317900
H    2.27434700  -2.24197200   0.36292000
H    3.90080500  -1.55929300   0.35488500
H    2.76376800  -1.17289000  -0.96370800
H    2.43309000  -0.30130400   1.99232300
H    1.22361400  -0.06891400   0.74334600
H    2.68426500   1.39267500  -0.56685800
H    2.43364400   2.22042500   2.40358000
H    1.23493200   2.46439300   1.11814100
H    2.77022800   3.33528700   1.03945700
H    4.79916400   2.24714500   0.11551500
H    4.76774600   0.45522100  -0.25114700
H    5.05507200  -0.10472200   2.10730400
H    5.31917300   2.98344600   2.47560200
H    5.88442000   1.64113200   3.65937400