10

O    1.10257600  -0.01483600   0.70140900
C    2.18980200  -0.01184500   0.26010300
C    3.23010900   1.07962400  -0.11394900
N    4.09472600  -0.00657900  -0.51345500
C    3.20169200  -1.09765500  -0.19875400
H    3.65016000   1.68776800   0.71219200
H    2.97775000   1.76492300  -0.94771200
H    5.04640900  -0.00398500  -0.89895700
H    2.93022000  -1.70646900  -1.08439400
H    3.60544500  -1.78153500   0.57445700