17

C    0.92940100  -0.39802300   0.20557100
C    2.34294200  -0.01778100  -0.21100100
C    2.80670700  -0.66389500  -1.51541800
O    4.07157200  -0.15342000  -1.81523200
C    2.59859700   1.48917100  -0.35625700
C    1.86044300   2.47180300   0.50550600
O    3.42610500   1.87877900  -1.14903800
H    0.66552700   0.02451100   1.18383600
H    0.86059000  -1.49039200   0.30342100
H    0.18382600  -0.07531100  -0.53560200
H    3.05726900  -0.28778400   0.59277300
H    2.08103800  -0.49334900  -2.32678300
H    2.89158500  -1.75251500  -1.34064800
H    4.18515700   0.02691200  -2.76036000
H    0.79810500   2.44116200   0.21689800
H    2.26237800   3.48245500   0.37799000
H    1.93624400   2.14559500   1.55343700