18

C    0.92291400  -0.13786900   0.02752100
C    2.46166200  -0.18426300   0.07062100
C    2.89716500  -1.09364700   1.32802100
C    3.07243100  -0.77051100  -1.20282800
N    3.05992100   1.08103600   0.33243500
C    2.66193300   2.07104500   1.27620700
O    1.73783000   1.89843600   2.01203600
H    0.59901400   0.55982800  -0.75846700
H    0.47789800   0.15879600   0.98240300
H    0.57085900  -1.14437000  -0.23298900
H    2.46500600  -0.68070200   2.24732700
H    3.98997200  -1.16282800   1.39691000
H    2.47135700  -2.08218800   1.10789900
H    2.77651900  -0.17575100  -2.07963000
H    2.70043200  -1.79273100  -1.34682600
H    4.17107900  -0.81888500  -1.15199200
H    3.95838500   1.26288000  -0.13042800
H    3.30985700   2.96900400   1.25400800