14

N    1.71027800  -0.87416700   0.10848900
C    2.77452800  -0.12387100   0.19621500
O    3.67282300  -0.49119800   1.03514100
C    2.89998600   1.13933200  -0.61122600
C    4.30707000   1.50336800  -0.99839000
C    5.32781300   1.54301100  -0.06910800
C    6.21664700   1.53578000   0.77991900
H    0.95710900  -0.65366100  -0.53514400
H    1.61707300  -1.70097600   0.69723600
H    2.45874100   1.93422600   0.02580900
H    2.25781700   1.06502600  -1.49878400
H    4.50986800   1.78864300  -2.03368400
H    4.46926500   0.09306500   1.02549800
H    7.01454300   1.57161100   1.50442100