10

O    2.76782400  -1.08984000   0.14129700
C    2.23628900   0.02573500   0.02030100
C    2.88443400   1.25826700   0.00628200
C    2.40380300   2.56869000  -0.12204200
N    3.44646600   3.40421400  -0.07304600
C    4.50031800   2.63326900   0.07719600
O    4.23945200   1.34194900   0.13246100
H    1.12678700  -0.01411400  -0.08488900
H    1.37249500   2.90705700  -0.24314200
H    5.54331000   2.94445800   0.15893200