16

C    1.11871700   0.24802700  -0.45436000
C    2.51139000   0.02914400  -0.02625100
C    3.45811100   1.02805400   0.10984400
C    4.85429000   0.79253500   0.59179700
C    5.07972700   0.47781000  -0.83768700
N    5.36770500   1.46424300  -1.67609400
O    5.57413800   1.01372700  -2.88974000
H    0.89431000  -0.38919300  -1.32765500
H    0.89872200   1.29578800  -0.69319300
H    0.43348600  -0.09933400   0.33871000
H    2.80418500  -0.99926800   0.22338400
H    3.20327600   2.05305100  -0.17802600
H    4.98789800  -0.06621500   1.25657700
H    5.35839200   1.69681200   0.94468400
H    5.02658400  -0.55561100  -1.20589900
H    5.79376600   1.78750600  -3.43574700