16

C    0.92455100  -0.01985300  -0.03429300
C    2.45482000   0.01501000   0.15685300
C    3.12197500   1.32031800  -0.31252700
C    3.67811400   1.19830200  -1.72360000
O    4.61787400   0.06702100  -1.65786400
N    4.07069800  -1.03093300  -1.32040600
C    3.02452200  -1.16021800  -0.59682900
H    0.47733500   0.77492900   0.57784600
H    0.49868900  -0.97776800   0.29439200
H    0.64106400   0.15033200  -1.08337100
H    2.67499200  -0.15551700   1.22463100
H    2.38538200   2.13839100  -0.31521600
H    3.93266000   1.62026300   0.36650400
H    4.29289700   2.04481400  -2.04392300
H    2.92238200   0.95439600  -2.48591400
H    2.56353900  -2.15417900  -0.57495900