13

C    1.06104700  -0.00665100  -0.17160500
N    2.48660700  -0.03803600   0.08529300
C    3.28304100  -1.09227700   0.22756800
N    4.56154900  -0.79275000   0.45687000
C    4.68660500   0.63013400   0.49026400
C    3.30459000   1.18404300   0.23785900
O    2.84810500   2.26911000   0.15546600
H    0.76056000   1.04308200  -0.27665500
H    0.52724000  -0.47046100   0.67138000
H    0.84154900  -0.56321600  -1.09419200
H    2.91710300  -2.12183000   0.15969600
H    5.09866500   0.95810200   1.46350400
H    5.42193500   0.97165100  -0.26245900