20

C    1.97194100  -0.62961800   1.06796300
N    2.95893800   0.02542800   0.27882800
C    3.21364700   1.44408200   0.16317700
C    2.21499900   1.95997900  -0.91518400
C    3.03334600   2.18398900   1.48547500
C    4.66076100   1.55717000  -0.36379200
O    4.79914600   0.57444300  -1.35322400
H    2.48025400  -1.29802100   1.78905300
H    1.36224000  -1.28221300   0.41983600
H    1.34542700   0.08668900   1.60801400
H    3.52974600  -0.52220600  -0.38755400
H    2.40807600   1.48652000  -1.88633400
H    2.36702500   3.04478800  -1.00788700
H    1.17479200   1.77855900  -0.61144900
H    3.62115300   1.72379300   2.29241600
H    1.97981200   2.24193600   1.79120800
H    3.38652600   3.21652700   1.35446300
H    5.36625000   1.40192700   0.47279200
H    4.80664800   2.57854300  -0.75293200
H    5.68053800   0.58522000  -1.73988200