12

C    0.85887200  -0.03406700  -0.05590500
N    2.31966100   0.03674800  -0.06085700
S    3.16373500   1.40629500  -0.35735300
C    4.70026900   0.62015900  -0.17294800
C    4.56393200  -0.68928600   0.11546300
C    3.15599400  -1.10673700   0.19767100
O    2.68545000  -2.18472100   0.43250300
H    0.45060800   0.62960400   0.71848200
H    0.59755900  -1.07479900   0.17269600
H    0.46356700   0.23925700  -1.04375300
H    5.61155800   1.20890800  -0.29655000
H    5.37704100  -1.39731100   0.27766100