17

C    1.38907500  -0.16393500  -0.37692200
C    2.72272600   0.04149200   0.22274200
C    3.64290600  -1.07751700   0.55890000
C    4.27871100  -0.51146800  -0.64722100
C    5.08725400   0.72783100  -0.46993900
O    4.60662600   1.39436700   0.66196900
C    3.20943200   1.40219700   0.63569300
H    1.13405200   0.62030600  -1.10427600
H    0.64863700  -0.08760200   0.44372400
H    1.27377900  -1.15863700  -0.82548600
H    3.22230800  -2.08115200   0.45139900
H    4.22240300  -0.89498600   1.47780100
H    4.16577200  -0.98792400  -1.62637800
H    6.15015300   0.46632800  -0.30941300
H    5.04515600   1.36094600  -1.37795200
H    2.83469900   1.63400800   1.64929700
H    2.81336000   2.17864500  -0.04727600