17

N    1.04288400   0.15344000   0.22448100
C    2.36713500  -0.08454500  -0.04106700
C    2.69980900  -0.67924600  -1.36942600
C    1.81577600  -1.22876500  -2.20887500
C    3.23499700   1.38205700  -0.03446900
C    3.87916000   1.80172600   1.24332800
N    4.58599400   1.23534900   0.11215800
H    0.69486900   0.19065400   1.17679200
H    0.41259200   0.47271700  -0.50589900
H    2.85304300  -0.61125300   0.79431500
H    3.76573100  -0.67049400  -1.61372100
H    0.74731200  -1.29764300  -1.98757500
H    2.15096000  -1.67159600  -3.14920400
H    2.78912100   2.05664100  -0.77343600
H    3.80219900   1.15606500   2.12443400
H    3.99596600   2.87056500   1.44836500
H    5.27663600   1.71744600  -0.46053100