17

C    1.00151900  -0.05411200   0.07656900
N    2.45224900   0.07427100  -0.04950700
C    3.17819600  -1.15989700  -0.35766000
C    3.04533000   1.24674700   0.13416300
C    2.26261600   2.47064100   0.47562500
N    4.39053700   1.23584100  -0.02379500
O    4.91296500   2.42326000   0.15185300
H    0.49061500   0.75624600  -0.45772900
H    0.71185300  -0.03034800   1.13855500
H    0.69567800  -1.01376300  -0.35287100
H    2.90670900  -1.91503400   0.39327800
H    4.25625500  -0.98889100  -0.34690800
H    2.86310400  -1.51244500  -1.35019100
H    1.55494200   2.27009100   1.29104500
H    1.68889400   2.80806600  -0.40229600
H    2.93438800   3.28041700   0.77504200
H    5.87050100   2.31818400   0.02182600