15

C    0.95472400   0.06788400  -0.00465500
N    2.41360500  -0.02531000  -0.00472900
N    3.14889500   1.06025500  -0.00681100
C    4.47249100   0.65662000  -0.00606000
C    4.55329700  -0.70236000  -0.00373000
C    3.18042200  -1.15803100  -0.00257700
C    2.65896200  -2.52714100  -0.00276400
H    0.70312400   1.13332900  -0.01294700
H    0.55120600  -0.40187000   0.90141900
H    0.55031500  -0.41617000  -0.90270600
H    5.25515200   1.41292100  -0.00733800
H    5.43656600  -1.33804200  -0.00264000
H    1.56509400  -2.57786000   0.02100100
H    3.07528300  -3.07450400   0.86086600
H    3.03335800  -3.05558900  -0.89761700