14

C    0.89013900  -0.01593800   0.14394400
C    2.38821000   0.02281200  -0.07811200
C    3.21221800   1.05719300   0.73550500
N    3.99668300  -0.02312100   1.26258600
C    3.24969300  -1.06550500   0.61782300
H    0.44859200  -0.88360600  -0.36581500
H    0.41736700   0.88671200  -0.26760900
H    0.63952900  -0.07971200   1.21391800
H    2.62972400   0.08643100  -1.14875700
H    2.67256200   1.59476600   1.54196900
H    3.82594500   1.80695300   0.20183600
H    4.84300100  -0.04039200   1.84361300
H    3.88837800  -1.72964400   0.00577400
H    2.73085700  -1.70755000   1.35889300