16

C    1.03335200  -0.06639600   0.16225000
C    2.58784100   0.00549800  -0.09697200
C    2.99712700  -0.80026300  -1.32469300
C    2.91719900   1.44523200  -0.13822900
C    3.14747200   2.18010900  -1.32407900
C    2.95057000   2.17713700   1.07609700
N    2.98153600   2.77996900   2.07128200
H    0.74949200   0.43415900   1.09743200
H    0.78674600  -1.13455300   0.23941500
H    0.47409000   0.36817600  -0.67733200
H    3.05071100  -0.40748600   0.81704000
H    2.42471600  -0.51628700  -2.22070200
H    2.78664100  -1.86140800  -1.13596900
H    4.07204300  -0.70929000  -1.53604700
H    3.08283000   1.68762700  -2.29879100
H    3.40099800   3.24432400  -1.28622200