12

C    0.96048100  -0.07569700   0.01263600
O    2.38142500   0.02142000   0.01202700
C    2.95468600   1.24909400   0.00080500
C    4.38609900   1.25417600   0.00073500
C    5.60979600   1.31111400   0.00021900
C    6.97837400   1.37077800  -0.00028400
N    8.14087000   1.42105000  -0.00070600
H    0.72824800  -1.14442400   0.02308800
H    0.55253600   0.40070700  -0.89425900
H    0.55201000   0.41852500   0.90969800
H    2.59915500   1.88500100   0.85893300
H    2.59907600   1.86929200  -0.86870100