16

C    0.99031700  -0.04970300   0.12456700
C    2.51318200   0.06584500  -0.00427900
C    3.31291600   1.11563100   0.81031900
C    4.17070100  -0.06547300   1.31302500
N    3.30023600  -0.94920200   0.57590800
C    2.77612900   0.16415500  -1.58679700
O    3.07914000  -0.75775000  -2.25354100
H    0.71195900  -0.06245100   1.18717100
H    0.62125200  -0.96337900  -0.36257900
H    0.51818500   0.82210200  -0.35101200
H    2.71712800   1.60766800   1.58927200
H    3.84767000   1.87590900   0.22603300
H    5.21983800  -0.11764100   0.97149100
H    4.15618600  -0.26859400   2.39839400
H    3.30397700  -1.96305500   0.43252400
H    2.58659900   1.20099700  -1.95513800