14

C    1.85439100  -0.85565000  -0.47613600
C    2.21149000   0.38232700  -0.92656900
C    2.78793600   1.34756000  -0.04185300
C    4.17152600   2.09189400  -0.70033200
N    2.96558600   2.71086600  -0.40704600
C    2.80712300   3.73440800   0.59525800
O    2.11047000   3.55705700   1.53925300
H    1.37202700  -1.57462300  -1.14276200
H    2.01630400  -1.15720400   0.56308800
H    2.06411200   0.65995900  -1.97530200
H    2.80680400   1.14059000   1.03570200
H    4.33729100   1.71123300  -1.71302200
H    5.04956600   2.26593700  -0.06494500
H    3.36160000   4.65959000   0.34121700