17

N    2.03502800  -0.60678300  -1.12707300
C    2.34174200  -0.05585800   0.09130500
C    3.39283300   1.26831600   0.00807800
N    2.82033400   2.42833900  -0.48455000
C    2.86455300   3.18702600   0.75550900
C    3.53138000   1.93682500   1.41363800
O    4.78707000   2.04268000   1.94463900
H    1.21144600  -0.32657800  -1.64619400
H    2.63075700  -1.30425900  -1.55849800
H    2.92432600  -0.73050100   0.73536800
H    1.45913100   0.33327200   0.61452300
H    4.27149800   0.85512600  -0.51387400
H    2.62767500   2.72267800  -1.43883800
H    3.54306800   4.05463100   0.70030700
H    1.88558200   3.52142400   1.13229000
H    2.89936200   1.45762500   2.17500800
H    5.37518500   2.54505900   1.36937000