17

C    0.80113100   0.05160400   0.59594200
C    2.14766600  -0.34151200   0.05728000
C    2.44682300  -0.42543600  -1.38399200
C    3.00193300   0.78815500  -0.66371600
N    4.36029000   0.85972700  -0.37897800
N    5.04069800   1.94107600  -0.04596700
C    4.50663200   2.87720300   0.64710000
H    0.88375200   0.52660100   1.58312300
H    0.19189100  -0.85802900   0.71339400
H    0.26685300   0.72748600  -0.08661600
H    2.75474400  -0.97813100   0.70999200
H    1.65334700  -0.19776600  -2.10124900
H    3.17424800  -1.16720700  -1.72705900
H    2.52246200   1.75989900  -0.80070100
H    4.95012700   0.03587400  -0.52156700
H    5.08336200   3.79750600   0.77466300
H    3.52704300   2.77648600   1.13908000