15

C    1.05327400   0.16933000   0.03868700
C    2.56084300  -0.07241200  -0.08315100
C    2.92374300  -0.86060900  -1.26520900
N    3.23409400  -1.44481500  -2.21210300
C    3.31974700   1.26640600  -0.20193800
C    3.81915300   1.92330700   1.09893400
N    4.68151100   1.34519200   0.14681400
H    0.83082500   0.74849700   0.94555600
H    0.53492400  -0.79565800   0.11014500
H    0.66218300   0.70453500  -0.83760100
H    2.93184100  -0.60690700   0.80691500
H    3.05142200   1.85626300  -1.08971500
H    3.60588200   1.32006800   1.99387100
H    3.91857300   3.00255900   1.26433200
H    5.49902700   1.71358100  -0.35665700