15

O    1.08849700   0.65274200   1.01415100
C    1.91956300   0.42054900  -0.07622900
C    3.15605900   1.25104900   0.12440900
C    3.86927800   1.93125900  -0.95545200
C    2.93664800   2.80419100  -0.09665000
C    3.44091700   3.64323300   0.94778400
O    4.50252600   3.56547400   1.54182100
H    0.37158300   0.01060000   1.02777800
H    1.44627700   0.67676400  -1.04515800
H    2.25890100  -0.63156800  -0.15138200
H    3.71637700   1.01851500   1.03656200
H    3.51031000   1.82269000  -1.98238800
H    4.94348300   2.10280100  -0.85482300
H    1.97583500   3.12563600  -0.50079500
H    2.80155200   4.49857500   1.29679200