19

C    0.99266100   0.07980500   0.11593500
C    2.45809600   0.18111400   0.02125900
C    3.17400900   0.99477600  -1.03072800
C    2.87923600   0.00188100  -2.19131300
C    3.36175800  -1.11475300  -1.32062000
C    4.73481100  -0.77586600  -0.84396700
C    4.67821600   0.77531100  -0.79750900
H    0.69051100   0.85511100   0.85011300
H    0.66977800  -0.87619900   0.55395000
H    0.45822500   0.28315400  -0.81977600
H    3.00359300  -0.09157200   0.93622000
H    2.80974100   2.02707000  -1.15343200
H    3.51799800   0.17047700  -3.07647500
H    1.83202700  -0.06971400  -2.50349800
H    2.91725300  -2.11600400  -1.26318600
H    4.99667700  -1.25895100   0.10862100
H    5.45539600  -1.17212600  -1.58556900
H    5.27219300   1.24511000  -1.59264200
H    5.02469800   1.18170500   0.16200100