13

C    0.98213800  -0.09295500  -0.07952000
C    2.30899900  -0.17798300  -0.10014900
O    3.03818200   0.99579400  -0.03809900
C    4.32380400   1.01542300  -0.05235500
C    4.97728400   2.24725600   0.01405200
C    6.35744600   2.32617800   0.00223300
C    7.57929800   2.41503000  -0.00709000
H    0.38674600  -1.00562100  -0.12744900
H    0.47328000   0.87131200  -0.01558800
H    2.90276100  -1.09387800  -0.16211900
H    4.87025700   0.06443800  -0.11622400
H    4.37566800   3.16155100   0.07639000
H    8.65614900   2.49683100  -0.01509100