16

N    1.76587600  -0.21209100   1.30982100
C    2.69948900  -0.05958800   0.23843400
C    3.12707200   1.35031700   0.06727000
C    4.06039800   1.89199300  -0.79097700
C    4.21067300   3.31586300  -0.45782300
O    3.33404700   3.59269800   0.58869200
C    2.64541600   2.43965500   0.93581700
H    1.73937700  -1.15096300   1.69575600
H    0.81795200   0.08259700   1.08713900
H    2.34298400  -0.41661600  -0.75684400
H    3.60395500  -0.66404300   0.43023000
H    4.62065900   1.37396100  -1.57143200
H    5.25348200   3.59314100  -0.18315200
H    3.98185600   3.97121300  -1.33101400
H    1.54917000   2.61410000   0.88903400
H    2.80678700   2.14348500   2.00481000