19

C    0.98352400  -0.13300400  -0.15434700
C    2.49917900  -0.09780300  -0.36186000
C    3.08587700   1.12821700   0.33943200
C    4.62998100   1.13375300   0.11653400
O    5.30694300   1.94770200   1.01120100
C    5.53874600   0.47770000   1.06173900
C    6.94223600   0.06541800   0.76207200
H    0.57121100  -1.01442500  -0.66705700
H    0.49836900   0.76086900  -0.57116900
H    0.71968700  -0.20892000   0.91036800
H    2.73778000  -0.05985700  -1.43632100
H    2.95279900  -1.01777500   0.03986600
H    2.89309700   1.11246200   1.42247900
H    2.69954400   2.07228500  -0.07161100
H    4.89881800   1.34447600  -0.93318900
H    5.07458600   0.06769700   1.96911700
H    7.33005900   0.55164700  -0.14232500
H    6.93312100  -1.02470000   0.60574200
H    7.60343500   0.27749700   1.61341500