12

N    1.70454800   1.18858500  -1.92382800
C    2.54638400   1.00057000  -1.15462800
C    3.55429700   0.75639000  -0.16943700
N    4.77985700   0.92142400  -0.46764400
N    5.82731000   0.75108500   0.28471500
C    7.09918800   0.16759400  -0.12296500
C    7.01414400   1.59642600   0.31897200
H    3.24627500   0.42766200   0.83529200
H    7.18304100  -0.07162700  -1.18753700
H    7.49301000  -0.57229800   0.58136200
H    7.34889800   1.84904500   1.33027500
H    7.03586400   2.40065900  -0.42285600