16

C    1.72185800  -0.02363400  -0.33389200
C    0.84029600  -1.02369600   0.43691700
C   -0.48352000  -1.55386600  -0.05784100
C   -1.40990000  -0.46343200  -0.51431400
C   -1.29585500   0.80886100  -0.13752500
C   -0.19985700   1.29233100   0.80363300
N    0.89284300   0.35823600   0.74920800
H    1.45126200   0.38253100  -1.31557000
H    2.79262300  -0.11766100  -0.11894500
H    1.43689600  -1.68151000   1.08347700
H   -0.96614400  -2.13876100   0.74371000
H   -0.27344500  -2.27708100  -0.86346900
H   -2.23521100  -0.75445400  -1.16916000
H   -1.98976400   1.58071100  -0.47921100
H   -0.56541400   1.31741000   1.84408800
H    0.17029300   2.28892400   0.52774300