17

C    1.22791500   0.04589600   0.37814600
C    2.63653900  -0.01111600  -0.17684500
C    2.63266100  -0.82359900  -1.62251800
O    1.66632800  -0.89850300  -2.27670800
C    3.26308200   1.25813900  -0.56526300
C    4.30266500   1.87155100   0.48664500
C    4.75559700   1.39991500  -0.82408900
H    1.27592500   0.51629600   1.37152600
H    0.80059800  -0.95784900   0.49957800
H    0.56488800   0.64359100  -0.26112100
H    3.31279400  -0.64937600   0.41691200
H    3.62974900  -1.25296700  -1.87587900
H    2.60346200   1.99329100  -1.03611800
H    4.48953500   1.26550600   1.37581200
H    4.12530400   2.93524700   0.66506100
H    5.02607700   2.13856300  -1.58271300
H    5.33233400   0.46830100  -0.84281400