18

C    0.79057200  -0.00304400  -0.46588400
C    2.18873300  -0.09183800   0.08678900
C    2.33471100  -0.19703000   1.59177800
C    2.17609800   1.30972800   2.15381100
N    2.40959200   1.34651500   3.52057300
C    3.31870500  -0.60246800  -0.73136600
O    3.14219400   0.77323600  -0.48389800
H    0.82442100   0.08541600  -1.55930800
H    0.26243800   0.88481700  -0.08380800
H    0.20680000  -0.89628900  -0.20222500
H    3.33194600  -0.54968100   1.88535100
H    1.56645200  -0.83563800   2.04867200
H    1.16004700   1.65564800   1.92353500
H    2.94985900   1.86521200   1.59534400
H    1.65025600   1.28912100   4.20198300
H    3.35964100   1.33493300   3.89766200
H    3.11538200  -0.93269100  -1.75612700
H    4.17526900  -1.07740800  -0.24008000