18

C    0.92406800  -0.34927300   0.50013000
C    2.35244400  -0.00591400   0.11616600
N    2.93855000   1.16054300   0.73471900
C    4.17601900   0.52707900   1.09293300
C    3.57363400  -0.83121900   0.64301200
C    4.33504200  -1.66252300  -0.33588200
C    4.57764100  -2.96181900  -0.17101100
H    0.66882000  -1.30578500   0.02359200
H    0.21630700   0.41020400   0.13967500
H    0.82200600  -0.46107100   1.58822800
H    2.41993900   0.13445500  -0.98578100
H    2.54679800   2.07885800   0.97244500
H    5.01677000   0.91019200   0.48004100
H    4.44818200   0.67547300   2.15308800
H    3.27008500  -1.42197300   1.52024500
H    4.69911800  -1.14817000  -1.23406600
H    4.23185600  -3.50635700   0.71290500
H    5.13625900  -3.53096600  -0.91693200