18

C    1.47104100   0.57445700  -0.71401100
O    2.87185000   0.52532600  -0.53243000
C    3.35953200   1.38683800   0.42119000
C    4.89511200   1.29673500   0.25739300
C    5.52496900   1.87908600  -1.02429700
C    6.29431500   2.85344700  -0.10702400
N    5.65748900   2.23609100   1.02579800
H    1.22473300  -0.14444300  -1.50328700
H    1.14478000   1.58203900  -1.02679000
H    0.93903600   0.29272000   0.21051700
H    3.08547200   1.09716400   1.45554900
H    3.03293700   2.43496500   0.25793000
H    5.17599800   0.25288700   0.50673600
H    4.80488900   2.34983600  -1.70415600
H    6.15453400   1.17947300  -1.58584100
H    7.39654300   2.77092300  -0.05779200
H    6.05443800   3.93182900  -0.17954200
H    5.74081300   2.39704500   2.03580900