15

N    4.46933800   1.58924000   4.06970400
C    4.09084100   1.63843000   2.82738600
N    5.00585200   1.26123600   1.91287900
C    4.84192300   1.22559300   0.50239300
C    6.04706200   1.83575200  -0.28831100
O    6.54782200   0.56137400  -0.62764100
C    5.38255700  -0.08386400  -0.16283700
H    3.73153900   1.88747300   4.71766800
H    3.10975100   1.95283000   2.44217100
H    5.91127400   0.97387000   2.31062000
H    3.83216700   1.55760200   0.23409400
H    6.75018800   2.44367500   0.30207700
H    5.68896900   2.41497000  -1.15621500
H    4.70936300  -0.41579000  -0.97126600
H    5.58529700  -0.92183700   0.52214300