18

C    0.95720100  -0.07198100   0.30150600
C    2.36678100  -0.17621300  -0.11603000
C    3.35639200   1.37437000   0.78878300
C    4.55206400   0.60505400   1.19814100
C    4.07685500  -0.80924000   1.55699000
C    3.23461900  -1.30149200   0.36284100
H    0.41433000  -0.81188400  -0.32644100
H    0.50434100   0.90518000   0.08765200
H    0.79352300  -0.37195000   1.34699100
H    2.61577100   0.26929400  -1.09081500
H    2.58148100   1.55677500   1.54296600
H    3.40490700   2.11556700  -0.01647800
H    5.31099700   0.59074900   0.40291200
H    4.99466700   1.11434000   2.07568300
H    4.91823900  -1.48630800   1.75132200
H    3.45748400  -0.77662300   2.46673200
H    3.90249400  -1.61382500  -0.45411800
H    2.60964500  -2.15889300   0.65388000