17

C    4.24790000  -0.36367800   2.42891900
O    3.95529900   1.01632500   2.18375500
C    3.56972700   1.38346400   0.97126800
C    2.80738100   2.68007600   0.92666600
C    5.09217600   1.73642200   0.07258800
C    5.96560700   2.73033700   0.76064700
O    5.18880200   1.15265600  -0.93267800
H    4.44229100  -0.45285300   3.50191800
H    5.14294700  -0.66254300   1.86019500
H    3.39010700  -0.98720300   2.14008800
H    3.17429700   0.56997300   0.34127200
H    3.26287600   3.44116600   1.57384800
H    1.79472200   2.47040400   1.30817000
H    2.70953200   3.05315000  -0.10152800
H    5.88305300   2.61707100   1.84848000
H    5.60885900   3.73258700   0.47302000
H    6.99609600   2.59649500   0.40567400