16

C    1.08039500   0.12497300   0.16555300
C    2.49771400  -0.08684700  -0.20772000
N    3.17494800   0.90216600  -0.70634500
O    4.44816000   0.93043900  -0.81455400
C    5.16797400   0.09731100   0.15090800
C    4.70507800  -1.32401100  -0.12743100
C    3.17613300  -1.42098200  -0.07090700
H    0.45502800  -0.63954100  -0.32128200
H    0.73416700   1.12758700  -0.10952700
H    0.97197400  -0.01747800   1.25330200
H    6.22568100   0.27685400  -0.06409500
H    4.91114100   0.46088400   1.15780100
H    5.15949600  -1.98522500   0.62502100
H    5.08576200  -1.64138800  -1.10818400
H    2.81182200  -1.83324900   0.88620100
H    2.77656800  -2.09223100  -0.84920200