12

C    0.88587000  -0.36015800  -0.09505900
C    2.21682500  -0.16351000  -0.05313900
C    2.74217600   1.17137400  -0.09136000
N    4.00999200   1.40461100  -0.05341600
N    4.62563800   2.52926400  -0.07900800
C    5.85464700   2.82764400  -0.04538100
H    0.46493200  -1.36783600  -0.06713800
H    0.17904500   0.47290300  -0.15816000
H    2.92316800  -0.99478500   0.00986300
H    2.05984500   2.03325900  -0.15477400
H    6.12001800   3.88889200  -0.08139400
H    6.62979000   2.05103700   0.01787700