17

N    1.10047200  -0.11438300   0.23233600
C    2.46572600   0.04522300   0.27500100
C    2.96353900   1.32941400  -0.71006100
C    4.37222200   1.46135900  -0.63639200
C    5.58893600   1.56861600  -0.55505600
C    7.03913600   1.69797300  -0.47120400
N    7.47726600   2.51529700   0.62433100
H    0.48507000   0.44190400   0.82018900
H    0.65361600  -0.64609200  -0.51015700
H    2.99548700  -0.82759300  -0.12619300
H    2.81763800   0.31946800   1.27715700
H    2.43561700   2.21031800  -0.31953000
H    2.61252600   1.07105300  -1.71856900
H    7.36366400   2.14382800  -1.42920400
H    7.44460500   0.66020600  -0.50012900
H    7.38861700   2.05068800   1.52354000
H    8.43986600   2.81657200   0.50688100