15

C    2.50553200  -0.58149700  -0.08781900
O    2.13033200   0.81496800   0.01557400
C    2.93369100   1.80350200   0.01259300
C    2.30088400   3.13776900   0.12971300
C    4.35489100   1.61643300  -0.09969700
C    5.33618600   2.71099000  -0.12452800
O    6.51204800   2.43947900  -0.19669600
H    1.55966300  -1.12852100  -0.05293100
H    3.13840400  -0.85255900   0.76695700
H    3.01375100  -0.75225800  -1.04545000
H    1.21221900   3.03706500   0.20236300
H    2.55953800   3.75486800  -0.74637100
H    2.68669400   3.66106200   1.01980100
H    4.78361600   0.61211600  -0.16689600
H    4.97503200   3.75986500  -0.07097100