18

C    1.85294700  -0.51298600  -0.57211500
O    2.02382200   0.82381200  -1.05448300
C    3.14907900   1.44894800  -0.80511000
C    3.29209300   2.85561800  -1.25306300
C    2.98294200   2.82741200   0.19855200
C    4.01501500   3.04518700   1.27859200
N    3.95666100   4.45642100   1.50293500
H    0.96576400  -0.91015200  -1.07428600
H    1.69034600  -0.49195200   0.51521700
H    2.73352100  -1.12350700  -0.81852900
H    4.02701000   0.85242200  -0.52358400
H    2.50824100   3.21290400  -1.92685600
H    4.31379500   3.13284800  -1.53521900
H    1.93464300   2.96239300   0.48395300
H    5.02091900   2.74344000   0.95104900
H    3.77355000   2.50204600   2.20081000
H    4.26386700   5.07726400   0.76083700
H    3.19928300   4.82708700   2.06850100