15

C    3.25750800  -0.37670300   1.28819100
C    2.55751700   0.28497200   0.10164100
C    2.70001700   1.76852200   0.00856700
C    1.72895200   2.63645500  -0.44313700
C    4.05634700   2.37289500   0.22780400
O    4.69116700   2.46821700   1.34436400
O    4.48315100   2.71486800  -0.85210900
H    3.03421100  -1.45158600   1.28399100
H    2.89595000   0.02099500   2.24939100
H    4.35229600  -0.28119900   1.23720500
H    1.47920800   0.05779800   0.08161800
H    2.95293100  -0.12867900  -0.84767100
H    0.69087800   2.30040600  -0.53196000
H    1.95791400   3.67563900  -0.69709900
H    4.19276600   2.13065300   2.10529000