19

C    0.85898100  -0.59480900  -0.12360400
C    2.37017100  -0.37403200  -0.03453300
C    3.00188300  -1.24408700   1.06241000
C    3.05354000  -0.57865300  -1.38299800
N    2.53021500   1.05661500   0.37453800
N    3.68227600   1.67379900   0.31166300
C    4.13964300   2.47885000  -0.54736600
H    0.40081900   0.03873200  -0.89614600
H    0.36296100  -0.40381100   0.84057000
H    0.66942300  -1.64402400  -0.38638100
H    2.52278100  -1.07608400   2.03795200
H    4.07939300  -1.04701500   1.15423700
H    2.86327300  -2.30108900   0.79568700
H    2.64325200   0.09228700  -2.15240000
H    2.86996100  -1.61026400  -1.71213100
H    4.14357500  -0.44739900  -1.32168700
H    1.92322200   1.39394100   1.13030700
H    5.16170100   2.84704400  -0.40883700
H    3.53923900   2.81453800  -1.40554100