16

C    0.89208900   0.17027500  -0.26791100
C    2.35462200   0.05412500  -0.23386300
C    2.98285500  -1.24298500  -0.60889000
N    2.06555200  -2.27756200  -0.93173900
C    3.15356300   1.15274400   0.14285300
C    4.52839600   1.09112000   0.30011700
C    5.74271800   1.06708500   0.46114300
H    0.53125300   1.20377500  -0.21427900
H    0.46692300  -0.39205000   0.58647100
H    0.51653600  -0.37136600  -1.15556900
H    3.70412200  -1.48293000   0.21154800
H    3.64940300  -1.03756600  -1.46881300
H    1.57533700  -2.68222500  -0.13897800
H    2.46100000  -3.01456100  -1.50582200
H    2.66932800   2.12155500   0.31012000
H    6.81342700   1.05495800   0.60149200