17

C    1.08205000   0.00351200  -0.21095400
C    2.50335200  -0.14054400   0.37939700
C    3.33688800  -1.04837200  -0.41449900
N    3.98074600  -1.76199800  -1.05273100
N    3.13378700   1.17465400   0.49442200
C    2.72713200   2.05438100   1.55891200
C    4.10758200   1.61963600  -0.46676700
H    0.46012500   0.64251200   0.42968100
H    0.62890900  -0.99574900  -0.25431500
H    1.12307200   0.41808500  -1.22708500
H    2.42789500  -0.54581500   1.40354900
H    2.28007600   2.96641000   1.12641900
H    3.62359900   2.36275000   2.12459300
H    2.01224800   1.56102500   2.22648800
H    3.76290100   1.37800000  -1.48561800
H    5.04858000   1.05984200  -0.30826700
H    4.28801900   2.69409700  -0.35364800