21

C    1.76121000   0.10931600   0.83283800
N    2.25511000   0.32512400  -0.50041900
C    2.80170800   1.54791500  -0.94011700
C    4.28671300   1.66873500  -0.47146400
C    4.87803800   3.04281500  -0.92038600
N    6.20540000   3.16867200  -0.46243200
C    6.55050700   3.55761900   0.87832300
H    0.98029000  -0.66387500   0.81808200
H    1.32948700   1.04097400   1.22395100
H    2.55376200  -0.22892000   1.52624800
H    2.44007800  -0.49983700  -1.06445200
H    2.22704300   2.39044400  -0.52259800
H    2.76649500   1.60867400  -2.03843100
H    4.88075500   0.84936600  -0.90368500
H    4.33517300   1.58698200   0.62504600
H    4.25617800   3.85139700  -0.50339200
H    4.84573100   3.10545900  -2.01866600
H    6.93641800   2.73810600  -1.02203100
H    6.61826900   2.69216800   1.56367800
H    5.79549600   4.25390700   1.26869600
H    7.52852800   4.05909300   0.87869100