14

C    0.98300100   0.03346000   0.06856800
C    2.46293200  -0.03249500  -0.01910700
C    3.26466100  -1.12562900  -0.11125400
C    4.64513500  -0.67931300  -0.17054600
O    5.70786000  -1.31736600  -0.25724000
N    4.65620800   0.69679800  -0.11282600
C    3.32790900   1.19447100  -0.01509000
H    0.54068300  -0.96921600   0.04520500
H    0.57185100   0.62043600  -0.76760900
H    0.67341700   0.53394200   0.99949400
H    2.97573500  -2.17461800  -0.13969200
H    5.51596200   1.24939000  -0.13804500
H    3.11009800   1.88841200  -0.85469800
H    3.20980000   1.81258900   0.90028200