21

C    0.87701200   0.03217600   0.03457100
C    2.34684500   0.15571300  -0.02107000
C    3.16291800   1.01258000   0.89560400
C    4.18124300  -0.06943200   1.34417700
C    3.34472100  -1.28212400   1.01695300
C    2.39490800  -1.76213800   2.06010600
C    3.81743800  -2.27317800   0.01162000
H    0.51187000  -0.87965900  -0.45809000
H    0.48001000   0.88376000  -0.55522000
H    0.46856900   0.12011700   1.04932700
H    2.80417900  -0.05688400  -0.99571500
H    2.56798800   1.39399500   1.73592700
H    3.64326000   1.85661400   0.37694400
H    5.10104200  -0.03558800   0.74616800
H    4.43282500   0.00182000   2.41272800
H    1.99612100  -0.95552400   2.68928600
H    2.98064200  -2.42652500   2.72383900
H    1.57605100  -2.36452900   1.64441000
H    4.40295800  -1.82183000  -0.79996400
H    2.99817000  -2.88166500  -0.39568300
H    4.49510900  -2.96323700   0.55187800