17

C    3.59756300  -1.25009300   0.11097400
O    2.75614400  -0.13661400   0.45421200
C    3.12665100   1.08119400   0.31534300
C    4.35837900   1.53593000  -0.17188100
C    4.61415300   2.91000700  -0.26403000
C    5.81496200   3.41767500  -0.73856100
C    6.13754500   4.84979500  -0.85713100
H    3.00961000  -2.14368400   0.33777600
H    4.50839100  -1.22917600   0.72490800
H    3.83838800  -1.21607000  -0.96037900
H    2.35321400   1.79308500   0.62850600
H    5.12642800   0.82244600  -0.48266500
H    3.83623000   3.61525600   0.05067800
H    6.58559600   2.70165600  -1.05039500
H    5.32321100   5.50668900  -0.52727100
H    6.39914900   5.08485200  -1.90386400
H    7.04950700   5.07338000  -0.27610600