17

C    1.40168900  -0.60015000  -0.07946700
C    2.90881000  -0.47967200   0.05477500
O    3.63096900  -1.25728700  -0.78833300
C    3.28734300   1.10533100  -0.20338700
C    4.82423000   1.23827000  -0.12562200
C    4.97333800   2.64559000  -0.34994700
C    4.98595900   3.85611000  -0.55156700
H    0.88582900   0.07061500   0.61848000
H    1.12268200  -1.63704400   0.16629100
H    1.06136800  -0.37581700  -1.10224700
H    3.27550100  -0.66287300   1.07711000
H    3.16591200  -1.40081300  -1.62649900
H    2.76023600   1.67473300   0.57540000
H    2.89252700   1.37456300  -1.19414400
H    5.29211300   0.62549300  -0.91117700
H    5.21140400   0.93604800   0.85833500
H    5.03319800   4.92089800  -0.72530800