14

C    0.90151400  -0.15081200   0.17169300
C    2.40612000  -0.03154600  -0.14706200
C    2.85464700   1.37732600  -0.17146100
C    2.82577700   2.29692900   0.95058900
C    3.31284900   3.58506000   0.55687800
N    3.67401200   3.69080700  -0.68598400
S    3.45065300   2.19342100  -1.50159600
H    0.63606900  -1.21555600   0.20088600
H    0.29580300   0.33718300  -0.60361200
H    0.64802400   0.28551200   1.14841800
H    2.64653100  -0.52829000  -1.09723500
H    2.98601200  -0.53942200   0.64622300
H    2.48424300   2.02155300   1.95131600
H    3.39521200   4.45333000   1.21694600