13

C    1.45394100  -0.32742700   0.20243100
N    2.42632100   0.41150800   0.53292000
N    2.88607500   1.49516500  -0.02898500
C    2.82175800   2.87206200   0.50429500
C    4.11444600   3.13314400  -0.29983100
O    4.78565300   4.07978500  -0.49834300
C    4.17186000   1.65378100  -0.74027700
H    1.24420900  -1.20054900   0.82936600
H    0.83269100  -0.11374000  -0.67975900
H    2.93502400   2.90906900   1.60089500
H    1.91731300   3.41890100   0.19225400
H    4.10092300   1.44851400  -1.82067500
H    4.98407300   1.06006900  -0.28801200