19

C    1.75587000   0.20088100  -0.95286400
C    2.75806700   0.23929600   0.17479200
O    3.37080400   1.56398000   0.23859900
C    4.57591800   1.76064800  -0.14600300
C    5.13062500   3.05806800  -0.10910400
C    4.32287000   4.21451200   0.33937900
C    6.53290600   3.25431300  -0.54167900
H    1.26115800  -0.78054000  -0.94436400
H    2.24267300   0.32986000  -1.92979600
H    0.98544800   0.97307400  -0.82544500
H    3.56239700  -0.50277900   0.06072900
H    2.28597900   0.11616300   1.15757000
H    5.16367000   0.90095900  -0.49914300
H    3.43692200   3.92408600   0.91567500
H    3.97941400   4.76380000  -0.55797200
H    4.94129700   4.92157600   0.91140700
H    6.98462000   2.36253000  -0.99398500
H    7.13946800   3.55188000   0.33331900
H    6.59699600   4.09941600  -1.24676300