21

C    1.18106500  -0.13859300   1.31072700
C    2.60011500   0.05859000   0.77671700
C    2.85615200   1.49114400   0.34604800
N    2.82395700   2.41756700   1.35003000
C    4.49951000   1.54287400  -0.40674700
N    4.63237200   0.72798900  -1.48959100
C    5.09746100  -0.64113100  -1.46296700
H    1.02176300  -1.19282200   1.57444000
H    0.42957800   0.13722000   0.55656300
H    0.99903100   0.46779900   2.20878300
H    2.76268200  -0.60130600  -0.08661700
H    3.34112600  -0.23045400   1.54231000
H    2.24769300   1.80683900  -0.51374900
H    3.13609500   2.17953500   2.28549100
H    2.66042000   3.39994900   1.16452200
H    5.13204100   1.24968400   0.44040500
H    4.56803200   2.60767500  -0.65623500
H    4.33750400   1.09012400  -2.39321100
H    5.38101800  -0.91608600  -0.43991500
H    5.97774400  -0.74690400  -2.11577000
H    4.31976500  -1.33250700  -1.82229600