18

C    1.09923100  -0.25897700   0.24081200
C    2.64657700  -0.22737900   0.02331900
C    3.02472900   1.18029500   0.26929000
C    4.85273700   1.42569700  -0.06118300
C    5.10211500   2.89334900   0.09364200
C    5.46663700   0.54324100   0.86743100
N    5.93425400  -0.18060500   1.65119900
H    0.79239200  -1.30300800   0.07436900
H    0.56729100   0.37983500  -0.47629400
H    0.82526100   0.02781000   1.26434100
H    2.86190100  -0.54555000  -1.00684300
H    3.12759700  -0.91813500   0.72869800
H    2.98098200   1.53571000   1.30787200
H    2.66003400   1.92059600  -0.45525000
H    4.84504500   1.02848400  -1.08747800
H    4.98175700   3.24187800   1.12831900
H    4.48755700   3.48681000  -0.59451400
H    6.16303100   3.05588200  -0.18588500