17

O    3.16562400  -0.60370500  -1.18955500
C    2.15933000   0.17113800  -0.65529100
C    2.72617900   1.25469700   0.20972300
C    1.82420400   2.13430300   0.83145600
C    4.13244700   1.33829500   0.35711000
C    4.84584000   2.73894400   0.56504000
C    4.77853100   1.86274900   1.70668600
H    2.80077900  -1.29765200  -1.74822700
H    1.44861600  -0.40389100  -0.02162500
H    1.53210100   0.67252800  -1.42499100
H    0.74655700   2.02237300   0.68199400
H    2.15483900   2.95084400   1.47749300
H    4.70680300   0.58708500  -0.18548400
H    4.19853000   3.61677100   0.50781300
H    5.76290100   2.79358000  -0.02728500
H    5.64458600   1.25392100   1.97892800
H    4.07989100   2.07278200   2.51950000