16

C    0.93139600   0.00263800   0.11433900
N    2.31164900  -0.04878200   0.50439600
C    3.09157600   1.14455100   0.79538900
C    4.44938700   0.66456100   1.29130300
C    4.34003100  -0.85305700   1.38960300
O    5.11653300  -1.60913200   1.87394700
C    3.01803300  -1.27634200   0.72263900
H    0.75088200  -0.70745600  -0.70697400
H    0.65820600   1.02189500  -0.18338600
H    0.30703100  -0.30929500   0.97225600
H    2.52101300   1.74245600   1.53018700
H    3.12953400   1.75611600  -0.12535300
H    5.26435900   0.90800500   0.59253600
H    4.72871100   1.08224800   2.26843000
H    3.22732900  -1.77359800  -0.24668200
H    2.42052100  -1.98499700   1.32254500