10

N    0.96528200  -0.00365200  -0.09168700
C    2.13200500  -0.00004600  -0.05820500
C    3.49271800   0.00189900  -0.02076200
C    4.72951200  -0.00033500   0.00698500
C    6.11783100  -0.00819400   0.06596100
C    6.89887600  -0.78548800  -1.11216700
O    6.81879700   0.55920000  -1.00108100
H    6.62093400  -0.07360500   1.04051200
H    6.35367500  -1.25762200  -1.93955400
H    7.76028000  -1.30581500  -0.66797900