14

C    1.02252100   0.04229200   0.30213400
C    2.36913400  -0.10148800  -0.33229000
O    2.30415200  -0.93543400  -1.50939400
N    3.28217300  -0.68478600  -2.33705600
C    3.82466700   0.46183000  -2.05414700
C    3.04903300   1.19098700  -0.99449600
O    3.71602400   2.02334000  -0.16881500
H    1.10995600   0.73748600   1.14948600
H    0.67866600  -0.92499400   0.69471400
H    0.28142100   0.43222200  -0.40852100
H    3.12288500  -0.54823500   0.34275500
H    4.74280600   0.78583900  -2.55413200
H    2.21874100   1.75965200  -1.45999700
H    4.53419000   1.64252600   0.17936200