12

C    0.96773300   0.00056400   0.00465800
C    2.43974900  -0.01572000   0.00161600
C    3.25466900   1.18905200   0.00257900
O    2.70456000   2.35276000   0.00510500
S    4.92551300   0.77790400  -0.00019300
N    4.59934800  -0.87479500  -0.00252700
C    3.31587800  -1.13461400  -0.00135400
H    0.55419200  -1.01419200  -0.00552800
H    0.58870000   0.56009300  -0.86858900
H    0.59344600   0.53894700   0.89340200
H    3.31647700   3.10926100   0.00553300
H    2.98897300  -2.17800200  -0.00277100