12

C    0.88651600  -0.06579100   0.08270900
C    2.39129800   0.10840000  -0.27493300
O    2.75428200  -0.70665200  -1.29098000
C    2.90752700   1.43763900  -0.22919500
C    3.38651300   2.56409600  -0.08816400
C    3.90203500   3.82063600   0.05336500
N    4.34517700   4.89177400   0.17401500
H    0.64608500   0.47211700   1.00703700
H    0.68576100  -1.13756200   0.19927200
H    0.30779700   0.33367000  -0.76243700
H    2.87504600  -0.28755900   0.69427900
H    3.47492400  -0.36339200  -1.84270800