15

C    0.80373600   0.18030300  -0.03483800
C    2.25212100   0.02408700  -0.29888100
C    3.20420100   0.87092200   0.18672700
N    4.55103500   0.72510800  -0.02122800
N    5.10141800  -0.34433300  -0.57773800
C    5.47421600   1.80505700   0.29273100
O    6.63291300   1.65450600   0.09935600
H    0.41328900  -0.73188600   0.44691700
H    0.25907700   0.27360400  -0.98875200
H    0.57457800   1.04522100   0.60030600
H    2.55124300  -0.80461100  -0.95120400
H    2.94426700   1.75600400   0.77242500
H    4.68194600  -1.24691500  -0.36822100
H    6.12056200  -0.28116000  -0.64335300
H    4.96405100   2.70008200   0.69426400