17

C    1.02155700  -0.25814100  -0.05713200
C    2.46551000  -0.00723300  -0.01427300
C    3.10171100   1.24856500   0.02850800
C    2.39050800   2.53734800  -0.11000800
C    4.59843400   1.26717600   0.18112600
C    4.91273100   1.02302400  -1.22343500
C    5.04198500   0.81236300  -2.41325100
H    0.79009100  -0.78820500  -1.00201500
H    0.39431500   0.63618000   0.02154000
H    0.74879800  -0.97908100   0.73318000
H    3.11992400  -0.88787100  -0.00368600
H    1.42084000   2.46052000  -0.61459700
H    3.02000600   3.27937700  -0.62183700
H    2.22065000   2.93126100   0.91190900
H    4.98653700   0.46703800   0.82854400
H    4.97670100   2.23734200   0.53098000
H    5.20302300   0.63182900  -3.46395800