20

C    1.12326100   0.11411300  -0.16820800
C    2.47510700  -0.41483400   0.34933100
C    3.28511100   0.79783500   0.92069100
C    4.71029500   0.45534800   1.16220400
C    5.10169300  -0.36289400   2.32908700
N    5.61095300   0.84313100   0.31282300
C    2.27513800  -1.50010600   1.35338100
H    0.53154100  -0.71056300  -0.58758400
H    1.26615400   0.86699800  -0.95792700
H    0.54208000   0.56889800   0.64786500
H    3.03244100  -0.81644100  -0.51410200
H    2.82742600   1.11126900   1.87205600
H    3.21560100   1.64126400   0.21773500
H    4.49575100  -1.28713800   2.31109500
H    4.81496800   0.16844400   3.24996800
H    6.17086000  -0.60669000   2.35704000
H    5.36787400   1.40879100  -0.49873300
H    6.59354900   0.60058400   0.42758400
H    2.30675600  -2.54913500   1.05092000
H    1.81824400  -1.26255400   2.32009900