15

C    0.97351300   0.08689400  -0.10565700
C    2.43417100   0.06339900  -0.00816700
C    3.31832100   1.13525700   0.17563300
C    4.65151200   0.67856600   0.07639900
C    4.65682700  -0.68990400  -0.15476900
C    3.25032300  -1.22008100  -0.07616100
O    2.85661200  -2.15995600  -1.00069300
H    0.56365200   1.09769000  -0.21204200
H    0.55536000  -0.37851600   0.80813800
H    0.64034100  -0.56356800  -0.93083300
H    3.01800200   2.16731800   0.36641300
H    5.53796900   1.30744200   0.17335700
H    5.53091000  -1.31828000  -0.33991500
H    3.15145600  -1.68959900   0.92642100
H    3.01900200  -1.85239000  -1.90055500