17

C    1.00657300   0.16833700  -0.01495200
C    2.54241900   0.04012800  -0.02700600
C    3.05891100  -0.80769300   1.13487700
O    3.01108500  -0.41436400  -1.26835400
C    3.08269300   1.44757100   0.01341000
N    3.35621800   2.05742200   1.08905000
N    3.84126300   3.23027200   1.37492000
H    0.65256100   0.78898700  -0.85019300
H    0.63757300   0.58049900   0.93460700
H    0.57959400  -0.83870900  -0.13606700
H    2.76171900  -0.39069200   2.10785700
H    4.15341900  -0.89329200   1.09161700
H    2.63210000  -1.81796800   1.05994900
H    2.65357000  -1.29028200  -1.45027500
H    3.20368600   1.96663000  -0.95307900
H    3.23185400   3.86866200   1.89270100
H    4.84839400   3.29135800   1.54890700