15

C    0.85751000  -0.10650400  -0.18112600
C    2.32241400   0.02180900  -0.24980600
C    3.03698500   1.14875900   0.14381700
N    4.36482100   1.16681000   0.04162600
C    5.04531900   2.24367700   0.41759800
N    6.35136200   2.18721900   0.28804500
O    6.98296900   1.12255200  -0.19037400
H    0.59001700  -0.98355200   0.43398300
H    0.45717300  -0.32745100  -1.18623700
H    0.36015600   0.78541700   0.22052300
H    2.90860700  -0.81986000  -0.63597700
H    2.49312700   2.02140800   0.53910800
H    4.63159200   3.17590300   0.82514900
H    6.98482100   2.94628900   0.54041400
H    6.26993800   0.47774800  -0.39074600