16

C    0.76192000   1.32836400  -0.55524800
C   -0.47187700   1.07413500   0.22689400
C   -1.43597600   0.03961300  -0.22194100
C   -0.76278500  -1.32487000   0.09923600
C    0.75772700  -1.21771300  -0.20852500
C    1.15894600   0.13942700   0.23686300
H    0.66237400   1.14321300  -1.63212400
H    1.28940800   2.25152700  -0.29087100
H   -0.61805900   1.60527300   1.17417900
H   -2.40149100   0.13448600   0.28965500
H   -1.60017600   0.12381100  -1.30909800
H   -0.90000300  -1.55290000   1.16523600
H   -1.22199400  -2.13232600  -0.48723200
H    1.32286000  -2.00013300   0.31243000
H    0.92337400  -1.32256400  -1.29366500
H    1.68239200   0.28676800   1.18824200