16

O    0.59140200   0.87664500   0.93011700
N    1.89376100   0.92057500   1.01503600
C    2.47366600   1.14886000  -0.14091800
C    3.91942100   1.08584800  -0.21042800
C    4.48838600   2.58270700   0.18360000
C    5.95083100   2.55738400   0.02839100
C    6.59497600   3.13886100  -1.00890300
H    0.25401000   0.77269700   1.83797300
H    1.86242800   1.45422400  -1.00328700
H    4.26741200   0.86606300  -1.22615700
H    4.34473000   0.39081500   0.52570900
H    4.17711800   2.74263500   1.22426500
H    4.00547300   3.31736400  -0.47470200
H    6.52783300   2.03320000   0.79803900
H    6.05083800   3.63153500  -1.82081500
H    7.68667100   3.16034700  -1.05295300