16

C    0.97296800   0.07609900  -0.20615600
C    2.44164600  -0.00010400  -0.11811400
C    3.26746100  -1.05110700   0.31937500
C    4.69091400  -0.69061800   0.06498500
N    5.59399500  -1.13284200   1.05492600
C    4.54694700   0.83751800  -0.22610300
O    3.14298500   1.01954400  -0.51448500
H    0.51529400  -0.91476300  -0.11094400
H    0.67613100   0.55153500  -1.15191000
H    0.60365400   0.71929700   0.61099400
H    2.92754600  -1.99957100   0.73711000
H    4.96244500  -1.18465800  -0.89397200
H    5.48791400  -0.74683200   1.98585600
H    6.56077700  -1.24428500   0.77630600
H    5.11031000   1.22333000  -1.08269800
H    4.77484100   1.43136800   0.67107000