15

C    0.95042500  -0.00376600   0.03126600
C    2.48004400  -0.00218300   0.13524100
O    2.81786700  -0.00253700   1.48290500
C    3.07632200   1.16311900  -0.62312800
C    3.76549900   0.70991300  -1.74022500
C    3.76702200  -0.70949400  -1.74098700
C    3.07881600  -1.16538400  -0.62438300
H    0.60544300  -0.00364300  -1.01143600
H    0.56458600   0.88625700   0.54724600
H    0.56650900  -0.89510700   0.54640400
H    3.77475000  -0.00158700   1.61242100
H    2.96282400   2.20241600  -0.30417400
H    4.22767600   1.34020100  -2.50226800
H    4.23054300  -1.33797500  -2.50370600
H    2.96756900  -2.20527100  -0.30656400