15

N    2.71496800  -0.98981000   0.92589700
C    2.07346600  -0.11242600   0.16067100
O    0.90768000  -0.03649000  -0.07521700
C    3.01887300   1.02685300  -0.56100600
N    4.35546800   0.88975300  -0.25368400
C    5.60296900   0.78536800  -0.94096000
C    5.42134500   1.69315600   0.25423900
H    3.71879000  -0.94826500   1.04766500
H    2.18111800  -1.71553500   1.39620800
H    2.59114100   1.96630600  -0.18193800
H    2.81111400   0.86722500  -1.62897300
H    5.63025400   1.20124500  -1.95454300
H    6.17284100  -0.13937800  -0.79464000
H    5.86916500   1.37854400   1.20387000
H    5.31531700   2.77540000   0.11802200