16

C    0.92507300  -0.05596200  -0.00967000
C    2.44053400   0.04604100  -0.08073600
N    3.11250400  -0.36018100   1.13944900
C    3.07224400  -0.76188300  -1.24168400
O    4.44465000  -0.87668400  -1.03052100
C    2.96243700   1.42166900  -0.01644800
C    3.44554800   2.52889400   0.14605100
H    0.49521300   0.34306200  -0.93843000
H    0.51950300   0.52688700   0.82882200
H    0.62327900  -1.10740800   0.09536100
H    2.72219000  -0.17310200   2.06564500
H    4.09133500  -0.66341500   1.02974200
H    2.80420900  -0.27366900  -2.19092600
H    2.61902300  -1.76646700  -1.23191600
H    4.94499400  -0.33560800  -1.64906900
H    3.85171800   3.52286600   0.25687000