17

C    1.98687000  -0.17053100  -1.47331200
O    2.19351100   0.70311100  -0.36755200
C    3.49438900   1.26135400  -0.19986800
C    3.72640900   1.57933700   1.26982900
C    2.89388100   2.85094100   1.52706100
C    2.68712100   3.43639200   0.18424100
C    3.05849700   2.55795100  -0.82118500
H    0.90742600  -0.33078600  -1.55761900
H    2.50446500  -1.12045400  -1.26265200
H    2.38264900   0.25918100  -2.40633900
H    4.26979100   0.66907400  -0.70386400
H    4.79698900   1.78167300   1.41968900
H    3.45191200   0.73175200   1.91068600
H    3.35343500   3.57033800   2.22377800
H    1.89763100   2.62980900   1.96154100
H    2.30429700   4.44450000   0.00218100
H    2.92527900   2.71037800  -1.89391500