22

C    1.90810100  -1.39310600   0.08794000
C    3.17957900  -0.69491800  -0.39041900
C    2.94235300   0.15509400  -1.63509200
C    3.73697200   0.15416000   0.79332300
N    4.96691700   0.81883800   0.45638300
C    4.97990000   2.23884400   0.22134300
C    6.18054500   0.06264300   0.29674400
H    2.09049200  -2.02109100   0.97195500
H    1.52110100  -2.04254200  -0.70959700
H    1.12126000  -0.66418400   0.33620200
H    3.93545800  -1.46548700  -0.61964000
H    2.22798200   0.97006300  -1.43429800
H    2.51228000  -0.46418500  -2.43457200
H    3.87029600   0.59336800  -2.03505100
H    3.93603100  -0.51378000   1.64757000
H    2.99918900   0.91275400   1.09128300
H    4.08658600   2.52711100  -0.35196100
H    5.89401600   2.53654700  -0.30555100
H    4.93601800   2.75739200   1.19717200
H    6.05683400  -0.95423900   0.68512400
H    7.00494500   0.57637300   0.81602400
H    6.43747200   0.02037300  -0.77756300