14

C    0.97349200   0.03610500   0.13290000
C    2.46869800  -0.01029800  -0.15891100
O    2.74720900  -1.08799800  -1.08840400
N    3.38358600  -0.68550800  -2.13809400
C    3.60627700   0.62568200  -2.05655400
C    3.08081900   1.15618200  -0.85757300
C    3.12998000   2.47080700  -0.44894800
H    0.78111700   0.81073800   0.88770200
H    0.64862300  -0.93092500   0.53702000
H    0.40474400   0.26445600  -0.77801700
H    3.03627800  -0.27820000   0.75312400
H    4.13300100   1.13025400  -2.86809100
H    2.68987400   2.79135100   0.49916500
H    3.61573900   3.22777100  -1.07024500