14

N    0.95057600  -0.04897300   0.04149000
C    2.10302400  -0.01175000   0.00258600
C    3.56277300   0.02268000  -0.01425100
C    4.18383000   1.16348700   0.82283100
C    5.53981100   0.58800100   1.18745200
O    5.41022900  -0.80971800   1.17789100
C    4.19484400  -1.22226300   0.62176900
H    3.89605300   0.09068200  -1.06430500
H    3.59529600   1.35281800   1.73388300
H    4.26222100   2.10441300   0.26472100
H    6.34455400   0.78038600   0.43080700
H    6.00923000   0.86112300   2.15171800
H    4.40267800  -2.10349600  -0.01395900
H    3.61393900  -1.62996000   1.48861300