12

O    1.28618200   0.17969200   0.52765800
C    2.27108000  -0.09222600  -0.05632300
O    2.53718300  -1.15548300  -0.79196900
C    3.88234000  -1.25873200  -1.21056400
C    4.54219400   0.08127600  -0.91847200
N    3.86066300   1.23240900  -1.37113400
C    3.50917200   0.88270200  -0.08191900
H    4.38470700  -2.05577800  -0.64551000
H    3.90350800  -1.48910200  -2.28569400
H    5.63071400   0.13026900  -0.80623500
H    4.25656800   2.12480000  -1.68148900
H    3.62886200   1.56584500   0.76464400