13

O    1.20937500  -0.01521200   0.11422700
C    2.41750800  -0.03657000   0.06318200
O    3.24477800  -1.01651100   0.10763700
C    4.56625300  -0.30348200  -0.00683300
C    4.24753600   0.65893500  -1.15271800
C    3.28099600   1.26008400  -0.07837200
C    4.33934700   0.83247900   0.99259200
H    5.35572900  -1.06058300   0.02066200
H    3.84329200   0.24378900  -2.08662000
H    5.04797300   1.38069300  -1.36999400
H    2.75607900   2.21924900  -0.13348900
H    5.15038600   1.57420900   1.02250900
H    4.01868900   0.57535900   2.01190800