12

C    0.99013000  -0.05342800  -0.00712300
C    2.45349800   0.13152000   0.00046100
C    3.28797500   1.21795300   0.00473500
C    4.64299600   0.70184600   0.01098400
O    5.73706200   1.23725500   0.01657000
N    4.47788900  -0.68937300   0.00976100
O    3.20796600  -1.00206500   0.00402300
H    0.49704500   0.92528600  -0.00346600
H    0.67229100  -0.62236300   0.87948100
H    0.68044900  -0.61118700  -0.90373700
H    3.01631500   2.27174600   0.00362400
H    5.14901100  -1.46171200   0.01468700