13

C    1.03264100   0.07732400   0.50783600
C    2.41053800  -0.11993100   0.06955900
C    2.84002900  -1.35065900  -0.49105800
C    3.41790900   0.96947700   0.19665900
C    2.92022400   2.20861400   0.77784500
N    2.48999000   3.17385700   1.24188200
H    1.03364300   0.40037300   1.57037600
H    0.38315000  -0.79241300   0.36535100
H    0.61516100   0.97075500  -0.00293200
H    2.13955800  -2.18324300  -0.60728800
H    3.87549600  -1.49367600  -0.81778600
H    3.85574300   1.16541500  -0.80453300
H    4.27805400   0.58896700   0.78646800