16

C    0.92461800   0.13586600   0.53434600
C    2.35864400  -0.29481400   0.26601300
C    3.26920700   0.85586900  -0.01669300
O    3.03048200   2.01714800  -0.05756300
N    4.67827500   0.44752100  -0.28101300
C    5.60924100   1.33977700  -0.54718800
C    6.94743700   1.00920800  -0.80274100
H    0.30480000  -0.74686700   0.73457400
H    0.50347900   0.66651400  -0.32990200
H    0.86910100   0.80322900   1.40464100
H    2.42142100  -0.98474600  -0.59574400
H    2.78373600  -0.84921400   1.12305300
H    4.91230600  -0.54738600  -0.25188700
H    5.25753800   2.37925900  -0.55506300
H    7.29750900  -0.02734500  -0.79476300
H    7.66661600   1.80268700  -1.01657000