19

C    0.87851400   0.00328700   0.41198300
N    2.30021400  -0.01658800   0.51343500
C    3.26647200   1.03889200   0.71338100
C    4.32662700  -0.02955000   1.12277100
C    4.57752200  -0.06468000   2.62469300
N    5.54739600   0.07434800   0.40998300
C    3.24050700  -1.09916900   0.68138500
H    0.53165500  -0.87163400  -0.15482400
H    0.54993200   0.94004600  -0.05766900
H    0.44560000  -0.04917300   1.42996300
H    2.94673700   1.78731600   1.45913800
H    3.48307600   1.56783100  -0.23429700
H    3.63798000  -0.08228500   3.19582300
H    5.15616500   0.81979800   2.92427400
H    5.15223800  -0.96342500   2.89344700
H    5.48188100  -0.03580300  -0.59699600
H    6.29669300  -0.50279000   0.77839700
H    3.45528900  -1.58389800  -0.28958800
H    2.89200800  -1.87140200   1.38879300