18

C    0.69804100   1.23112000  -0.25039500
C   -0.69475700   1.22903300   0.25436700
C   -1.51333100   0.00162500  -0.26906000
C   -0.69581600  -1.23201300   0.24038900
C    0.69699200  -1.22987900  -0.26440100
C    1.51561500  -0.00256900   0.25912300
H    0.75226500   1.30991100  -1.34532500
H    1.28832900   2.06771500   0.19119700
H   -1.28428700   2.07108800  -0.17761500
H   -0.74885200   1.29534100   1.35013000
H   -2.53322500  -0.00006400   0.13430400
H   -1.56063000   0.00795600  -1.36712700
H   -0.74994800  -1.31081900   1.33532700
H   -1.28594400  -2.06877100  -0.20108600
H    1.28661300  -2.07192200   0.16751100
H    0.75109100  -1.29612800  -1.36016900
H    1.56285300  -0.00885800   1.35719100
H    2.53552200  -0.00082600  -0.14421100