16

O    0.85817100   1.00659100   0.03787100
C    2.17086200   0.88802700   0.30546300
C    3.03024900   0.90215800  -0.91531500
C    2.66800800  -0.24256600  -1.91409500
C    3.70339100  -1.26120200  -1.64940800
N    4.66560500  -0.79036600  -0.94259000
C    4.50518100   0.63007700  -0.57380400
H    0.33400900   1.00722500   0.84648700
H    2.48470400   0.38486500   1.22875800
H    2.91820900   1.87306800  -1.42348500
H    2.76057600   0.05699100  -2.97534300
H    1.64506200  -0.62960100  -1.79355500
H    3.71985100  -2.29731200  -2.00289100
H    5.49360800  -1.33229700  -0.69137800
H    5.21380600   1.22164300  -1.17240600
H    4.75074900   0.76741800   0.48804700