9

N    1.01564200  -0.09870300   0.00000000
C    2.31754700  -0.05380000   0.00000000
C    3.04484200   1.16493300   0.00000000
C    4.43856700   1.15173800   0.00000000
N    5.60673200   1.13370700   0.00000000
H    0.51974300  -0.99092500   0.00000000
H    0.43950500   0.74492900   0.00000000
H    2.85334500  -1.00972800   0.00000000
H    2.53197000   2.13412700   0.00000000