15

C    0.90586000   0.03848300   0.22521300
C    2.30328700   0.01614800   0.00576200
O    2.91328600   1.15433700   0.12851300
C    4.30695600   1.26146600  -0.25390900
C    5.10124100   0.04828300   0.18469800
C    4.36859800  -1.20477100  -0.14977200
C    3.01785300  -1.19800100  -0.28195200
H    0.41720400   0.97791500   0.49427500
H    0.31948400  -0.87689800   0.12978700
H    4.65601500   2.19380400   0.20068000
H    4.31219400   1.37216100  -1.35024600
H    5.30679600   0.04949200   1.27184000
H    6.08818300   0.06730600  -0.30154800
H    4.92022800  -2.14610500  -0.22912900
H    2.44779600  -2.10587900  -0.48213300