17

C    2.16482500  -1.52867900  -0.64587700
O    2.21150800  -0.31557000   0.15584800
C    2.88121400   0.71272700  -0.12865300
C    3.71197900   0.87207700  -1.32630300
C    2.62035900   3.81462900  -0.26904300
O    3.39076500   2.97651900   0.48286400
C    2.79536000   1.80479800   0.90030000
H    1.46626200  -2.18458100  -0.12001200
H    3.16625000  -1.97497700  -0.67865600
H    1.79133200  -1.28449500  -1.64757200
H    4.65664500   1.35890300  -1.03719600
H    3.20284300   1.61812900  -1.96712300
H    3.88431400  -0.04961800  -1.89051400
H    1.54560000   3.84133500  -0.05198900
H    3.15338600   4.70784100  -0.59436800
H    3.33753400   1.42460200   1.78692600
H    1.73724400   1.92122300   1.20615100