18

C    1.51613200  -0.36304600   1.21726300
C    2.09955700   0.29426200  -0.03180300
C    3.13530500   1.32178700   0.30796900
O    3.50980900   2.25229100  -0.72074400
C    2.85080200   2.76939400   0.35180200
C    3.74127500   3.67231100   1.34446600
N    4.01644100   4.88607900   0.73388600
H    0.78085300  -1.12731700   0.93409500
H    1.00471000   0.36940900   1.85982000
H    2.29505300  -0.85956800   1.81495600
H    1.31172100   0.76427800  -0.64054000
H    2.58094600  -0.46252600  -0.67283900
H    3.98658900   0.98438500   0.91538500
H    1.86667100   3.22290600   0.17175400
H    4.66089500   3.09563500   1.51876900
H    3.15058900   3.79924100   2.26134400
H    4.74475700   4.95866800   0.02163100
H    3.41623600   5.70216800   0.85722200