16

C    1.86808700  -0.72898600  -0.68092600
O    3.20786100  -0.41380200  -0.25156700
N    3.49630600   0.84141500  -0.31948600
C    4.74319500   1.07624500   0.08790800
C    5.19818500   2.40042300   0.06941400
C    6.48213100   2.72143000   0.47829900
C    7.04713000   4.07548700   0.49442300
H    1.77957100  -1.81283500  -0.56582100
H    1.75192600  -0.42499400  -1.72916200
H    1.15601600  -0.19665500  -0.03727600
H    5.37040700   0.23800200   0.42202600
H    4.51008000   3.17757100  -0.27783500
H    7.13142000   1.90361900   0.81737300
H    6.34971300   4.84600900   0.14516100
H    7.96628500   4.09315300  -0.11890300
H    7.39091800   4.31389000   1.51729200