16

C    1.22727000  -0.66402800  -0.09564100
C    2.73115100  -0.64965100  -0.19277500
O    3.18695100   0.71135300  -0.29799200
C    4.42657400   1.01902300   0.12299400
C    4.91027000   2.34500800  -0.26978500
C    6.17564300   2.76199700   0.02961200
H    0.88253100  -1.70670200  -0.06524600
H    0.77281000  -0.17670300  -0.96861300
H    0.88421000  -0.15914500   0.81749200
H    3.08703300  -1.16299700  -1.10400200
H    3.21799900  -1.12106400   0.67808300
H    5.17260500   0.20244900  -0.03877900
H    4.43599700   1.07142900   1.26226800
H    4.20726500   3.00677800  -0.78791600
H    6.87488800   2.13580500   0.59367200
H    6.53351300   3.73881400  -0.30516200