14

C    0.97197300  -0.51640100   0.05060800
C    2.40781300  -0.01843300   0.05029200
C    2.52137300   1.47090900   0.04726700
O    1.75756300   2.35391700   0.04526400
C    4.20183500   2.02199000   0.04658300
N    4.26983900   3.32975600   0.04299600
O    5.00054500   1.14230100   0.04937900
H    0.99188000  -1.61463000   0.05313000
H    0.42872100  -0.18596500  -0.84437900
H    0.42767000  -0.18186500   0.94343000
H    2.99497300  -0.35104400  -0.82516300
H    2.99402400  -0.34720800   0.92784900
H    3.42219800   3.89301100   0.04124400
H    5.17960000   3.78861700   0.04218000