13

O    1.02125900  -0.06498100   0.31474300
C    2.34680500   0.01682800   0.25976800
C    2.81942300  -0.89283900  -1.28005300
C    4.20951500  -1.04990400  -1.33007500
C    5.42688800  -1.17415600  -1.34035500
C    2.95583000   1.30476400   0.14885300
C    3.46449000   2.40065200   0.03958200
H    0.58492000   0.73465200  -0.01899700
H    2.81745700  -0.68131000   0.96719500
H    2.39220600  -0.23037900  -2.04383400
H    2.24503900  -1.81204200  -1.10615600
H    6.49923800  -1.29860400  -1.36900900
H    3.91572600   3.37818800  -0.03871700