15

C    0.94842600   0.03065300  -0.05766800
C    2.41595600   0.02643300   0.01983300
C    3.17460900   1.15959400   0.14648800
S    4.93664800   1.17600700   0.24398400
C    5.57888300  -0.18145900   1.17626400
O    4.96966700   0.81310100  -1.22463200
O    5.45762900   2.42580400   0.71665900
H    0.53079800  -0.64649600   0.70698400
H    0.66008500  -0.42215100  -1.02599700
H    0.50415800   1.02891700   0.03000800
H    2.91482600  -0.95002600  -0.02208800
H    2.78866200   2.17989700   0.02388200
H    5.36508400   0.01365600   2.23570100
H    6.66494600  -0.15835500   0.99872500
H    5.15116300  -1.12489800   0.81760500