15

C    2.17753600  -0.64331600  -1.37473400
O    1.83634800   0.71698600  -1.05970300
C    2.77829800   1.59136200  -0.87667200
C    2.38152400   3.02500000  -0.59855100
C    3.06639900   3.16180800   0.77483000
C    3.33145800   1.70397200   0.97988800
O    3.60371700   0.85303000   1.70680800
H    1.27513700  -1.09542500  -1.79693200
H    2.45855200  -1.15915900  -0.44539600
H    3.00180900  -0.66876500  -2.10113700
H    3.76320600   1.38002200  -1.33286900
H    1.28886700   3.10110400  -0.52814000
H    2.74666800   3.72599200  -1.35998500
H    4.03868000   3.68336000   0.75895400
H    2.46361500   3.56934200   1.60253100