13

C    0.88250700  -0.02782300   0.22044800
C    2.07980500  -0.00908700   0.07067000
C    3.52056500   0.01332700  -0.10460500
C    4.32559600   1.06133900   0.72025100
N    5.09093900  -0.01516800   1.28155200
C    4.35003100  -1.06889100   0.64877600
H   -0.18732300  -0.04419800   0.34393700
H    3.78819800   0.05219700  -1.17163200
H    3.75403100   1.60462000   1.49923800
H    4.94876000   1.80137500   0.18506700
H    5.92368100  -0.02577300   1.88229900
H    4.98956200  -1.75695600   0.06570500
H    3.79163200  -1.67607100   1.38917200