14

C    0.97584500   0.01787000   0.51644600
C    2.42939800  -0.17343100   0.14476500
O    2.44935100  -0.85923900  -1.17258200
C    3.48996000  -1.20905500  -1.81451700
C    4.83309400  -1.04191300  -1.40549500
C    3.18938700   1.07455500   0.02113200
N    3.81228200   2.04022200  -0.08842200
H    0.92753500   0.49445600   1.50512300
H    0.47443200  -0.95708100   0.57038300
H    0.46744300   0.66107900  -0.21343900
H    2.94052400  -0.85105900   0.84846900
H    3.25597200  -1.69060000  -2.77308600
H    5.12026200  -0.61094200  -0.44247100
H    5.62357100  -1.36426000  -2.08870400