17

C    1.00012000   0.00799000   0.05576800
C    2.54502500   0.00652100  -0.07266300
O    2.83186700   0.13661900  -1.41072600
C    3.12327400  -1.29985600   0.62212300
C    3.30463300  -0.89316600   2.08048500
C    3.47187200   0.56742700   2.04331400
C    3.13956100   1.06715800   0.78699600
H    0.66617800  -0.18145900   1.08384800
H    0.63158400  -0.78844600  -0.60516200
H    0.60479500   0.97220200  -0.28880700
H    3.77735100   0.25500800  -1.56698200
H    4.09707700  -1.51954100   0.16028200
H    2.46146100  -2.15860700   0.46009400
H    4.14931500  -1.39721900   2.59032000
H    2.44359300  -1.13008200   2.74267000
H    3.77180400   1.18482700   2.89522300
H    3.28548300   2.09857300   0.45053200