14

C    1.13225800  -0.10207000  -0.53975100
O    2.55523300   0.03128200  -0.30205200
C    3.15047100   1.15014600  -0.34428500
C    4.54930000   1.20637200  -0.10088500
C    5.37913500   0.01657500   0.20544900
C    5.12473000   2.49445700  -0.16810900
N    5.59507300   3.55766500  -0.22441100
H    1.02518000  -0.78595600  -1.38978000
H    0.68747500   0.87898000  -0.75003100
H    0.70996000  -0.55287400   0.36587500
H    2.57812700   2.06309400  -0.56856400
H    4.78592200  -0.90388200   0.22010600
H    5.87803800   0.15553300   1.18010900
H    6.18791100  -0.07135600  -0.54039000