13

C    6.20893900   3.41386900  -0.48674800
N    5.57510800   3.21944600   0.58719700
N    4.68010700   2.31996800   0.89543600
C    4.52321900   1.67535400   2.18279300
C    3.44858200   2.57300400   1.63395400
C    2.17057800   1.97036100   1.05274700
O    1.13442000   2.54262700   1.16495400
H    6.91400400   4.25162800  -0.51419300
H    6.06702800   2.77004800  -1.36682100
H    5.16929300   2.04045500   2.98690600
H    4.37609100   0.59083800   2.12346800
H    3.33658100   3.58507200   2.03848400
H    2.28378000   0.97980800   0.55237700