19

C    0.97918300   0.33937500  -0.06758000
C    2.41638500   0.03026600   0.02030800
C    3.18609600  -0.74440000  -0.97978600
C    3.55576700   0.63979000  -1.36972800
C    2.82726100   1.39585900  -2.41134500
C    4.82788800   1.21980300  -0.84592300
O    4.76480700   2.59945800  -0.86117900
H    0.77515800   1.39242400   0.18363500
H    0.47824200  -0.25473400   0.72112500
H    0.52731100   0.07865500  -1.03182200
H    2.92873500   0.29871100   0.95045200
H    2.57589500  -1.28053300  -1.71554700
H    4.01159800  -1.33340300  -0.55954100
H    1.92477800   0.88922600  -2.77030300
H    3.52069800   1.52988300  -3.26207800
H    2.60054300   2.41588600  -2.06398100
H    5.59882300   0.80694100  -1.54029200
H    5.07130300   0.79361600   0.14779300
H    5.63612700   2.98031100  -0.71181100