19

C    0.91464000  -0.08569200   0.29023900
C    2.40956400   0.08085800   0.13681200
N    3.14858700  -0.63791200   1.02008400
C    2.79123800  -0.65920800  -1.55737700
N    2.12322400  -0.06597600  -2.57420800
C    2.90582000   1.52887000  -0.03689400
O    2.71110900   2.25121700   1.13076200
H    0.37916100   0.38595300  -0.54446500
H    0.59915500   0.40352200   1.22404700
H    0.61897600  -1.14387100   0.34698300
H    2.75959900  -1.42802800   1.52343000
H    4.10225900  -0.37593600   1.24842000
H    2.48025500  -1.68757500  -1.34742600
H    3.87636900  -0.51283300  -1.58040700
H    1.19647800  -0.37115100  -2.85009400
H    2.51390900   0.71883900  -3.08348100
H    2.39628900   1.96948900  -0.91032700
H    3.98792100   1.51213900  -0.25563500
H    1.89436900   2.75705400   1.08959800