14

C    0.73469200  -1.20112700   0.54727000
O   -0.54901800  -1.46773600  -0.06124600
C   -1.46970100  -0.57911200  -0.16024200
C   -1.26470700   0.77969300   0.10572300
C    0.08159900   1.29248600   0.18040100
N    1.02038900   0.80935200  -0.85947700
C    1.16643700   0.23254800   0.42541000
H    1.43394700  -1.87030100   0.02851100
H    0.64458300  -1.52332600   1.59540400
H   -2.44043000  -0.98419800  -0.46661000
H   -2.13240400   1.42482800   0.26304700
H    0.22311000   2.29888400   0.58065200
H    1.71812300   1.52847500  -1.05750000
H    1.98845800   0.52227400   1.09134700