21

C    0.88857600  -0.01764800   0.14924300
C    2.41643600  -0.01748600   0.08123700
C    2.95083700  -0.99521100  -0.97472000
N    2.99294200  -0.34507600  -2.32164700
C    2.95413000   1.42848800  -0.10863100
C    4.33145700   1.55504300  -0.69481000
N    5.37979900   0.88962800  -0.09568400
H    0.53685600   0.69214800   0.91105200
H    0.49466300  -1.01042000   0.40960700
H    0.43335200   0.29100600  -0.80764300
H    2.79251800  -0.41098000   1.03932400
H    2.33825200  -1.90401900  -1.04192100
H    3.98936500  -1.27968900  -0.76396500
H    2.07124800  -0.01838800  -2.63131000
H    3.37883800  -0.95492500  -3.04911000
H    2.88837800   1.93978200   0.87125000
H    2.26011400   1.98760700  -0.75878900
H    4.58450800   2.46908300  -1.24289400
H    3.63060100   0.49646100  -2.18476200
H    5.25341700   0.49554400   0.83142300
H    6.32231100   1.21852200  -0.26994700