13

S    1.60231600   0.04501800   1.53734800
C    2.76495300   0.00723900   0.25972900
N    3.25657500  -1.10307700  -0.28082900
C    4.26709900  -0.79891000  -1.26996000
C    5.47751000  -0.05858400  -0.77938800
C    4.29722000   0.71775700  -1.28732800
N    3.30009300   1.08446700  -0.30584200
H    2.97066300  -2.04276600  -0.02805100
H    4.27140500  -1.43078500  -2.15952300
H    5.69913300  -0.05075800   0.29094200
H    6.34771100  -0.08334300  -1.43772700
H    4.32619700   1.32843300  -2.19112000
H    3.05176600   2.04032000  -0.07488900