15

C    0.96698700  -0.11434500  -0.11835300
C    2.49485400   0.00742300  -0.00923000
N    3.17823100  -1.19129300  -0.42958800
C    4.03133900  -0.86826800  -1.31842200
N    4.03022300   0.51113200  -1.59185200
C    3.11278500   1.11194200  -0.82488500
C    2.83689700   2.47477400  -0.82720400
H    0.48040400   0.78802300   0.27450600
H    0.64362500  -0.97760000   0.47581600
H    0.66361700  -0.26829700  -1.16249100
H    2.74987700   0.17747700   1.05769800
H    4.71595500  -1.53745800  -1.84435700
H    4.63780600   0.97553400  -2.26704400
H    3.37382200   3.16614800  -1.48104800
H    2.06808400   2.87537600  -0.16402100