18

C    0.89254200  -0.56802600   0.60875200
C    2.27687700  -0.55931400   0.08009300
C    2.77686200  -1.72509800  -0.68419200
C    2.29593200   0.93315700  -1.15471600
C    3.65850600   1.10660900  -1.73525400
C    4.70239200   1.28432900  -0.72975900
N    5.47891700   1.36866700   0.12040700
H    0.57509100   0.39451200   1.02994400
H    0.91286800  -1.28302600   1.45905100
H    0.15281400  -0.94994600  -0.10898100
H    3.02670000  -0.05906700   0.71849500
H    2.09103000  -2.05678700  -1.47782800
H    2.81720700  -2.55357400   0.05550300
H    3.79978900  -1.60377300  -1.06053800
H    1.97611500   1.69029000  -0.42936200
H    1.51406400   0.59104600  -1.84358300
H    3.57729400   2.03399600  -2.34564500
H    3.93104200   0.31094600  -2.44416200