20

C    2.71494300  -0.81090900  -0.94615900
N    2.13878700   0.45704900  -0.57767500
C    2.84722500   1.61442000  -0.36577500
C    2.14230300   2.96295800  -0.21975500
C    3.01624500   3.32847900   0.99345100
C    3.35428300   1.85579400   1.23531300
C    4.74851500   1.39247900   1.54471800
H    2.13168200  -1.25391900  -1.76808800
H    2.67477600  -1.50642600  -0.09073100
H    3.75517500  -0.67222500  -1.26224400
H    1.14791800   0.46091100  -0.32817700
H    3.77390400   1.62919400  -0.95802800
H    1.08395600   2.83517400   0.05286700
H    2.20831600   3.60852400  -1.10559800
H    3.90650900   3.90343500   0.70192900
H    2.51591700   3.84030500   1.82523500
H    2.59745300   1.36443800   1.86462600
H    5.49325800   1.85115500   0.87864700
H    4.84206800   0.29779100   1.49800100
H    4.99065300   1.69545200   2.57719100