8

O   -0.42125700  -1.05498200  -0.00222300
C   -1.16464500  -0.02155900  -0.00208800
C   -0.35019800   1.16984900   0.00055800
C    0.95895900   0.65161700   0.00188500
N    0.95883400  -0.66125600   0.00030700
H   -2.25131500  -0.16274400  -0.00387700
H   -0.69189900   2.20641200   0.00129500
H    1.91451200   1.18079200   0.00394400