13

C    1.28556700  -0.82913500   0.22963200
C    2.48136000  -0.23879700  -0.10199300
C    2.68383100   1.14436700   0.05146400
N    3.86789800   1.65141500  -0.28982700
N    4.06622100   2.90651800  -0.15603200
C    5.34335800   3.48489100  -0.51900200
O    5.50577400   4.64887400  -0.38720800
H    1.13687800  -1.90480700   0.10718900
H    0.44831200  -0.24545100   0.62469100
H    3.31199100  -0.83162900  -0.49617000
H    1.88339900   1.79223600   0.44366800
H    3.35447100   3.56290600   0.20597500
H    6.04991400   2.71970700  -0.89690600