20

C    1.07764300  -0.20854500  -0.02117500
C    2.56734700   0.04238800  -0.23106500
C    2.93604100   1.49153500   0.00336900
O    4.34225100   1.65559200  -0.19975800
C    4.84422900   2.93890800  -0.04748000
C    6.37121500   2.78346700   0.01810000
N    6.75490100   1.61884800  -0.66732600
H    0.83593700  -1.26492300  -0.19805400
H    0.46621500   0.39218400  -0.71135300
H    0.76819400   0.03555800   1.00632000
H    2.85802300  -0.23392800  -1.25765700
H    3.15948800  -0.58687700   0.45310400
H    2.68900700   1.80465100   1.03416000
H    2.39535200   2.15714500  -0.69293000
H    4.47333700   3.43493300   0.86599300
H    4.58932400   3.58497800  -0.91007800
H    6.67676000   2.63120600   1.08571800
H    6.95086100   3.65779600  -0.32132700
H    6.00804000   0.91219500  -0.78115300
H    7.71066600   1.44321900  -0.98480800