16

C    0.92343500  -0.19383500  -0.08065500
C    2.42164000  -0.13186300  -0.02718700
O    3.11287100  -0.80867500  -0.93605600
C    2.96780500   1.63180600  -0.10721800
C    2.44489600   2.23063200  -1.29187200
C    3.15529600   2.28389500  -2.46567300
H    0.46394400   0.50066300   0.63378000
H    0.62265400  -1.21575000   0.20380700
H    0.53421600   0.01425300  -1.08822700
H    2.87243500  -0.28208000   0.96448300
H    2.59851900  -0.97182100  -1.74069300
H    4.05249900   1.47728300  -0.07211800
H    2.53060300   1.97317600   0.83847500
H    1.43694000   2.65798100  -1.26150900
H    4.14653500   1.82609200  -2.54942600
H    2.76245900   2.80479000  -3.34285500