12

C    3.27440700  -1.09118800   0.53582000
O    2.52168700   0.13407100   0.25501400
C    3.08198100   1.25594100   0.18164500
C    2.48509100   2.53729200  -0.08403400
C    3.57967800   3.39345600  -0.04194300
N    4.71135700   2.73696700   0.21562100
O    4.37812000   1.39792700   0.35253200
H    2.52230000  -1.88321700   0.53518800
H    3.75445900  -0.98585000   1.51646900
H    4.01572500  -1.23253000  -0.26022500
H    1.43029100   2.73714100  -0.26689300
H    3.62412100   4.47373600  -0.18539400