18

C   -1.72982500   0.76080800   0.17896600
C   -1.66124800  -0.65253600  -0.45512600
N   -0.25394500  -0.39814100  -0.72582500
C    0.98926900  -1.07137400  -0.44541100
C    1.91623800   0.09850000  -0.07570500
C    0.96770900   1.16730500   0.50576900
C   -0.29003700   1.00585000  -0.35942000
H   -2.50872900   1.42580500  -0.20857400
H   -1.76261300   0.73016000   1.27551400
H   -2.23184600  -0.76325900  -1.39287300
H   -1.82391400  -1.54409700   0.16867600
H    0.81832300  -1.78517600   0.38142000
H    1.30228300  -1.66764900  -1.32011100
H    2.69511200  -0.20709000   0.63384400
H    2.42154200   0.47572100  -0.97703100
H    0.72468400   0.94506100   1.55633700
H    1.38365600   2.18086300   0.46061000
H   -0.26978000   1.65729800  -1.25337900