14

O    2.58935100  -0.89490700  -0.81052400
C    2.22793700   0.11454500   0.02209700
C    3.37217000   1.26594600  -0.03098400
C    3.52663000   1.85748000  -1.41238900
C    2.80923600   3.13305200  -1.22638300
N    2.48086200   3.36341500   0.01668000
O    2.90623700   2.32812400   0.75085300
H    2.96796200  -1.64416400  -0.33384600
H    2.09425100  -0.16563200   1.07752800
H    1.32136800   0.61470800  -0.35992300
H    4.26498700   0.85195200   0.46058700
H    3.13722100   1.24056800  -2.23888900
H    4.58918500   2.05866000  -1.66239100
H    2.55173800   3.87729700  -1.98433000