19

C    0.92658100   0.00734100  -0.05949400
C    2.46134700   0.03233200   0.07281800
C    3.09485800  -1.09477800   0.93971700
C    3.97134400  -0.25100100   1.87602500
C    4.79132600   0.64486700   1.00405000
C    2.89883500   1.25136700   0.83211000
C    2.99903900   0.90848400   2.27951000
H    0.63959200  -0.91700800  -0.58013200
H    0.55398000   0.85715000  -0.64783600
H    0.43771800   0.01496700   0.92560800
H    2.87453700   0.04427600  -0.94836800
H    3.67383100  -1.81368000   0.34500300
H    2.34023100  -1.65808500   1.50657200
H    4.50419200  -0.74477100   2.70561200
H    5.09762700   0.36685600  -0.01242800
H    5.34469600   1.47389700   1.46020800
H    2.87123600   2.27039900   0.42274200
H    3.43015200   1.68815100   2.91848900
H    2.05597700   0.53281400   2.71628800