19

C    0.84303200  -0.34064600  -0.31518200
C    2.34700700  -0.15079500  -0.15755400
C    2.73807800   1.32328000  -0.03268200
C    4.24276400   1.48909800   0.12721400
N    4.59335400   2.90594100   0.25287900
N    5.82241700   3.33686100   0.17068300
C    6.56313400   3.51697700  -0.83873400
H    0.59358500  -1.40658500  -0.40373600
H    0.46727600   0.16638200  -1.21672400
H    0.29579800   0.05940200   0.55173300
H    2.87096700  -0.59328500  -1.02136800
H    2.70145900  -0.69684600   0.73274800
H    2.22644700   1.76513200   0.84011100
H    2.39941100   1.87797000  -0.92305900
H    4.80055900   1.09418400  -0.73689000
H    4.60909300   0.96621700   1.02917200
H    3.96491600   3.52211800   0.77950400
H    7.61250700   3.77615300  -0.66238100
H    6.17444100   3.44040100  -1.86564100