13

O    1.76244000  -0.41152800  -0.74643800
C    2.80150100   0.30225200  -0.53416800
O    3.70180200   0.17988500  -1.40746400
C    2.88292900   1.22476300   0.64423000
C    4.22074600   1.82534300   0.96547400
C    5.24522000   1.95212600   0.05119600
C    6.15334100   2.03337900  -0.77451000
H    1.06886500  -0.32511000  -0.07306600
H    2.48771400   0.68232600   1.52038500
H    2.13814400   2.02368000   0.43877300
H    4.50571300   0.74670400  -1.22745900
H    4.35187700   2.23275900   1.97140600
H    6.96342200   2.13716800  -1.47984900