10

C    0.91514700   0.03143800  -0.00188600
C    2.14576800   0.01566200  -0.00059200
C    3.51945400  -0.00641600   0.00084800
C    4.40611500   1.11090900   0.00199400
O    5.61269300   0.69732000   0.00318500
N    5.66539400  -0.72844200   0.00296500
C    4.44202900  -1.12756800   0.00159700
H   -0.16748900   0.04474800  -0.00301700
H    4.22095900   2.18849100   0.00200700
H    4.21373600  -2.19450300   0.00114900