17

O    3.06303100   2.36958900  -1.15679000
C    2.42939500   1.69125400  -0.41704700
C    3.04324700   0.86766700   0.73267500
C    4.45782300   0.51608400   0.34181000
C    5.39605500   1.67548700   0.07070500
C    6.38455700   0.85789500   1.05483400
C    5.30532600  -0.06612800   1.57496600
H    1.31447700   1.63226500  -0.48218500
H    2.42855000  -0.01211200   0.97296500
H    2.98214800   1.56183300   1.59232700
H    4.51556100  -0.22713100  -0.46717800
H    5.11590800   2.63375100   0.52483600
H    5.78584000   1.81055600  -0.94386400
H    7.13663300   0.34326200   0.44346100
H    6.81549000   1.54620100   1.79607200
H    5.46175400  -1.14893600   1.51483600
H    4.88840400   0.21563600   2.54897300