18

C    0.97897500  -0.01347200   0.04943200
C    2.47643000  -0.02589100   0.07601600
O    3.06034800   0.91090200   0.97137200
C    4.14996900   0.06043700   1.31718300
C    3.26929400  -1.11188500   0.88090300
C    3.87000600  -2.27623900  -0.00836900
N    4.51425300  -3.19709800   0.81685300
H    0.60137200  -0.82404100  -0.59077100
H    0.62628300   0.93760200  -0.37560100
H    0.56457400  -0.11807500   1.06141600
H    2.91495600   0.06931300  -0.93788400
H    5.02981400   0.22276300   0.66737000
H    4.42828100   0.16077600   2.37396100
H    2.65969000  -1.50379300   1.70831000
H    4.56806700  -1.82437100  -0.72822100
H    3.01981600  -2.74688000  -0.52399000
H    5.48395600  -3.06996400   1.10458100
H    4.00113600  -3.95012600   1.27403400