17

C    2.51004000  -1.12855300   0.85594800
C    2.07485300   0.00859700  -0.02697800
C    0.99998100  -0.16144000  -0.86057600
C    2.78011800   1.28623400  -0.02369600
C    2.08080900   2.45384300  -0.34195100
C    4.16777600   1.46048200   0.36719200
C    5.12478400   0.50610300   0.36550100
H    3.17202600  -1.82391800   0.31535900
H    1.63452700  -1.70984300   1.17466100
H    3.04500000  -0.77622400   1.74831400
H    0.46826800  -1.11662000  -0.88359600
H    0.65671100   0.60135400  -1.56212400
H    1.03969100   2.44780000  -0.66992600
H    2.56106400   3.43062700  -0.23719700
H    4.46791500   2.48566300   0.60334700
H    4.93531700  -0.53256400   0.09107300
H    6.15647100   0.76845800   0.61185900