12

O    2.15022100  -0.96035800   0.49840600
C    1.94183500   0.07446300  -0.04229400
C    2.94366800   1.23422500  -0.04923000
C    4.29813200   0.66612000   0.30758600
C    5.44962100   0.62911100  -0.60844600
O    5.26547800   1.64054700   0.38535200
H    0.96853500   0.28058200  -0.55725600
H    2.55918700   1.91265000   0.73748300
H    2.92445500   1.78796200  -0.99987300
H    4.25076200  -0.07779700   1.13274100
H    5.38969600   0.99986500  -1.63681000
H    6.25794200  -0.07485300  -0.38151800