13

C    0.96603500  -0.04763500  -0.13283400
C    2.49471300   0.02160800  -0.02802300
O    3.18257500  -0.71068400  -0.98031900
C    2.95609900   1.41978900  -0.00049500
C    3.37000600   2.57237000   0.03354200
C    3.89686100   3.84437000   0.03740900
O    3.67091500   4.72786200   0.87581600
H    0.47757000   0.49397700   0.68823200
H    0.67644700  -1.10544900  -0.07737400
H    0.61962100   0.36974500  -1.08985600
H    2.79235100  -0.36601900   0.96770000
H    2.69324000  -0.72212000  -1.81128200
H    4.60726500   4.18848200  -0.75981600