11

C    1.29859100   0.37723600  -0.61897400
C    2.55859600   0.15697100  -0.01769400
C    3.34582100  -1.10400400  -0.16457300
C    2.69726700  -2.11116200  -0.99399000
N    2.14102800  -2.87298800  -1.65853200
C    3.09336000   1.19804400   0.76570600
N    3.52210300   2.06745100   1.41742300
H    0.76778700   1.32434700  -0.47359800
H    0.84499200  -0.40767900  -1.23825700
H    3.55974500  -1.50798700   0.84695700
H    4.34853800  -0.85084900  -0.56783700