12

N    0.99908000  -0.00506600  -0.31540900
C    2.14387400   0.00736100  -0.17409200
C    3.59385600   0.01509400   0.02782200
C    4.17604800  -1.26995000   0.65322600
N    4.90615800  -0.71617700   1.78546700
N    4.80271400   0.56182900   1.97621400
C    4.04064100   1.05664600   1.01853200
H    4.07406500   0.23858400  -0.94625400
H    4.86704500  -1.82541000   0.00002500
H    3.40766500  -1.97217300   1.01952000
H    5.47772300  -1.25816600   2.44345700
H    3.80028500   2.12289000   0.99662000