14

C    1.25816600  -0.62276200  -0.05220900
C    2.71333500  -0.24202100   0.02501600
O    3.49936300  -1.18934100   0.31993600
N    3.16894700   0.95657500  -0.21226400
C    4.60534200   1.28784800  -0.15933400
C    4.81112200   2.57465700   0.47953000
C    4.98626300   3.64879700   1.00338000
H    0.65414400   0.21756400   0.31787200
H    1.06179800  -1.51781200   0.55113200
H    1.02116500  -0.83991000  -1.10497400
H    2.51002100   1.69166600  -0.46719900
H    5.01532500   1.28048100  -1.18230100
H    5.10538200   0.47492100   0.40101700
H    5.15071100   4.60604300   1.47010800