19

C    1.97263900  -0.31727300  -1.33456400
C    2.15996400   0.25762500   0.08106500
C    2.80179600   1.61329800   0.04363400
C    2.04844700   2.81537500  -0.06988300
C    0.67904000   2.86316600  -0.12577300
C    4.21405600   1.67258000   0.05347400
C    5.09669900   2.84324500   0.00855800
H    1.52558600  -1.31799300  -1.26880100
H    2.93217900  -0.41030800  -1.86405200
H    1.31050300   0.31954300  -1.93894700
H    2.79752500  -0.42036200   0.66848500
H    1.19353100   0.30047300   0.60147600
H    2.58756400   3.76314100  -0.12825300
H    0.05552000   1.96752400  -0.06943200
H    0.16344700   3.82062400  -0.23414300
H    4.72563900   0.70274900   0.10491100
H    4.60070800   3.81781300  -0.03488200
H    5.77641600   2.73636600  -0.85703400
H    5.76824100   2.81168200   0.88610400