17

C   -1.02956300  -0.09196200  -1.09264300
C   -0.56271300   1.12005900  -0.08681300
C   -0.94107800   0.10897200   0.99966800
N   -0.60362600  -0.93792000  -0.01468100
C    0.78990300  -1.24813100  -0.04498800
C    1.60920000   0.12560100   0.20121800
N    0.83529100   1.23491500  -0.24499100
H   -2.12216200  -0.05067300  -1.20482300
H   -0.51748100  -0.22238700  -2.05475400
H   -1.11201000   2.06620300  -0.19090400
H   -0.36446000   0.05753100   1.93120500
H   -2.01408900   0.10299000   1.22559800
H    1.05328800  -1.94109100   0.76538000
H    1.05034600  -1.69385800  -1.01408300
H    2.58598200   0.09397500  -0.29515400
H    1.77315700   0.18170800   1.28770300
H    1.14107600   1.71452600  -1.08762800