15

O    0.94874800   0.23038800   0.36517600
C    2.10497200   0.11373400   0.38615800
C    3.08931700   1.42168000  -0.16447800
C    2.34373900   2.74479500  -0.24149700
C    3.24122600   3.67836700   0.59065200
C    4.00488200   2.71964500   1.49045400
O    4.08887700   1.49551500   0.71279400
H    2.72947600  -0.75319000   0.69671900
H    3.39964600   0.90663700  -1.09583400
H    1.33291800   2.65299000   0.18096500
H    2.22855900   3.06552200  -1.28538500
H    3.93826400   4.22945400  -0.05553000
H    2.66348900   4.41208300   1.16584700
H    5.03782600   3.00064900   1.72896200
H    3.48361600   2.46611900   2.42980300