15

C    1.17644500  -0.24461300  -0.14548300
C    2.59020800   0.14786100  -0.00124700
C    3.71252200  -0.75751400   0.35905000
C    4.35642900  -0.54082000  -0.96196100
O    4.76280600   0.67190800  -1.27037900
C    4.26579600   1.68066900  -0.42156100
O    2.88506500   1.40036900  -0.23465200
H    0.64757200   0.43252800  -0.82751300
H    0.69974400  -0.18166500   0.84989700
H    1.08858300  -1.28643500  -0.48043300
H    3.38513700  -1.79268400   0.49582300
H    4.31307500  -0.43210400   1.22896600
H    4.46292800  -1.28790400  -1.75138100
H    4.79436800   1.68630100   0.54569800
H    4.34911200   2.64315200  -0.93374300