16

N    1.04364700  -0.04406300   0.07799300
C    2.35010500  -0.01811400  -0.32007700
C    2.58162000  -1.10367400  -1.66606600
O    1.97010800  -0.65343500  -2.76554600
C    2.86184600   1.35465800  -0.77961400
C    4.26602800   1.32434000  -1.16423900
C    5.43264300   1.28648800  -1.47604500
H    0.35430000   0.58637500  -0.32709300
H    0.70494200  -0.71570700   0.76248200
H    3.00369600  -0.51523000   0.41377500
H    2.26111900  -2.08972800  -1.30006500
H    3.67580400  -0.98730600  -1.74501100
H    1.13505400  -1.10683400  -2.93910000
H    2.72669200   2.04838200   0.06694500
H    2.24299000   1.72236200  -1.61485900
H    6.47309100   1.27556700  -1.75328200