17

N    1.06270200   0.04574400  -0.21614400
C    2.45908500   0.00547700  -0.10450500
C    3.01807200  -1.32835200   0.56006100
C    3.33093700  -0.88741000   2.04808300
N    4.44204200  -1.58089400   2.54183700
C    3.48733000   0.60664400   1.93986900
C    3.00744000   1.08622500   0.78937400
H    0.59135500  -0.22852500  -1.07065200
H    0.48507700   0.41186000   0.53319500
H    2.88668500   0.03345100  -1.12255700
H    3.95048600  -1.61086600   0.04942400
H    2.31329100  -2.16929100   0.51530600
H    2.45227300  -1.14152000   2.66830700
H    5.38509700  -1.29738700   2.29369100
H    4.34062900  -2.46108500   3.03527800
H    3.91674500   1.19982000   2.74963200
H    2.93311400   2.14176200   0.52137400