12

C    1.99567900  -0.56999900   1.07165400
C    2.02836500   0.39159600   0.07863600
C    3.21744900   1.29893800  -0.15115800
C    2.52583200   2.18757500   0.77311300
C    1.86428300   2.86084300   1.55829400
C    4.51520800   0.81151100   0.31049600
N    5.52270300   0.39842200   0.69033300
H    1.13431000  -1.23834600   1.15877100
H    2.83269000  -0.70389200   1.76630800
H    1.17149800   0.54626100  -0.58457000
H    3.25796500   1.69779800  -1.17612200
H    1.29165600   3.46924800   2.24624300