10

C    0.95126800   0.00874400  -0.04953000
C    2.42576800  -0.25911100   0.02623500
C    3.27099700  -0.79710600  -1.04787200
O    3.24214100   0.61230100  -0.80202900
H    0.68881900   0.92116900   0.50297500
H    0.45733600  -0.84428000   0.44251600
H    0.60646100   0.08088400  -1.08903800
H    2.86098500  -0.30009500   1.04013700
H    2.90579600  -1.02838400  -2.06043300
H    4.24804100  -1.24143100  -0.79528000