10

O    2.31200800   0.85284400   0.81893600
C    2.27613400   0.10907000  -0.09276800
C    3.04928300  -1.32560300   0.06081400
C    2.09233900  -2.35995800  -0.00497200
C    1.22506900  -3.23529500  -0.06021800
C    1.64012200   0.32066100  -1.37390000
N    1.12985800   0.44892400  -2.40322500
H    3.59543000  -1.28551200   1.01414600
H    3.73042400  -1.31109000  -0.81217200
H    0.47778400  -4.01880600  -0.11020900