17

C    0.95009800   0.00249400  -0.04878600
C    2.42178000  -0.03477200   0.01144700
C    3.19256500   1.14444200   0.05553400
C    4.63807400   1.10048900   0.29337600
O    5.19247900  -0.13445700   0.51182300
C    4.63128700  -1.17030400  -0.26591700
C    3.15033500  -1.32613500   0.06083000
H    0.50264400  -0.83111300   0.51266300
H    0.66613400  -0.16157700  -1.10903400
H    0.52254900   0.96232500   0.26726900
H    2.72289100   2.12266100  -0.09322500
H    5.08344000   1.61066400  -0.60807900
H    4.91831300   1.78426000   1.11966300
H    5.18827400  -2.08341500  -0.02903900
H    4.76629900  -0.95456600  -1.34323700
H    3.00821600  -1.70724800   1.09543100
H    2.65772500  -2.07416800  -0.58274800