12

O    1.99176700  -0.56111400   1.31811100
C    2.72216300  -0.21509500   0.19909700
C    3.23207000   1.16206400   0.38158700
C    4.16648200   1.76334600  -0.41175400
C    4.52528100   3.10289500  -0.11874600
O    5.33949300   3.79832000  -0.72456500
H    1.59161500  -1.42952500   1.20865000
H    2.12147300  -0.18643300  -0.74065600
H    3.57647400  -0.89131400  -0.01726500
H    2.78299600   1.70524500   1.22453900
H    4.65253700   1.27006000  -1.25743500
H    4.05841200   3.64726400   0.74103500