17

C    3.99261000  -0.29303200   2.26877600
C    3.29117300  -0.42826500   0.94700000
C    2.50165300  -1.52272900   0.65538800
C    3.40345700   0.55903200  -0.06748000
C    4.15470700   1.73005100   0.04238100
C    4.23538900   2.68356800  -0.99775500
C    4.97826200   3.82587800  -0.86901000
H    3.66711000   0.61623400   2.79635200
H    5.08292900  -0.23359700   2.13168400
H    3.78222800  -1.15131500   2.91797200
H    2.36001800  -2.33050200   1.37835300
H    1.99214700  -1.61719400  -0.30747100
H    2.86157000   0.38983800  -1.00409600
H    4.70711500   1.92715000   0.96735700
H    3.68737000   2.49714100  -1.92671200
H    5.53685500   4.04097600   0.04691300
H    5.03657400   4.55896000  -1.67711500