16

N    0.85496800  -0.06754200   0.19153500
C    2.13368000  -0.20658800   0.39815700
C    3.09439600  -0.71027200  -0.61607300
C    2.45354000  -1.36906900  -1.84262000
O    1.73585200  -0.30959200  -2.44191600
C    2.52667700   0.86017700  -2.34942000
C    3.36756400   0.67316600  -1.12858600
H    0.25197300   0.36603700   0.88679100
H    0.45846700  -0.29303400  -0.72600600
H    2.51765400   0.10970900   1.37415400
H    3.94688100  -1.23004300  -0.16006300
H    3.24436100  -1.76236900  -2.50422600
H    1.75551500  -2.18465700  -1.60801800
H    3.18791300   0.97784900  -3.23309900
H    1.86626800   1.74281900  -2.32314100
H    4.11639700   1.36824700  -0.74614300