12

N    1.28706300   0.05559600   0.24019500
C    2.55682500   0.11753000  -0.10467800
N    3.07968200   1.32772400  -0.21223000
C    4.21447900   2.18253100  -0.31323700
C    2.84607400   2.71932000   0.06608100
C    2.52702500   3.07141200   1.43443500
N    2.28669700   3.34790400   2.52847200
H    0.96513500  -0.91521200   0.34571000
H    3.22595000  -0.72716000  -0.32600600
H    4.57466400   2.38100600  -1.33009100
H    4.98186800   2.04843900   0.45936900
H    2.27903600   3.25099400  -0.71024000