15

O    0.76600200  -0.06233300  -0.05792300
C    2.02717600  -0.11223300   0.23062000
C    2.97758900  -0.76560700  -0.69077500
C    2.38520100  -1.35324500  -1.97978100
O    1.84839400  -0.24966700  -2.66949900
C    2.57515800   0.89839400  -2.36793200
C    3.22185500   0.65790000  -1.05353600
H    0.24041300   0.44206200   0.58382000
H    2.37036200   0.25983100   1.20441400
H    3.78870400  -1.30301300  -0.18127500
H    3.19618900  -1.84325900  -2.54652300
H    1.58375800  -2.08110700  -1.79843600
H    3.40898600   1.08889100  -3.08545600
H    1.92450100   1.78857200  -2.40983500
H    3.91825700   1.34012600  -0.55914700