17

C    1.09976800  -0.86815200   1.09183400
C    1.62498000   0.00531500  -0.01708500
C    2.37532700  -1.01936400  -1.27529200
N    1.53123300  -1.93657300  -1.80890300
N    0.69359800   0.85936900  -0.58850400
C    1.08423500   1.92086100  -1.40594700
O    2.23048700   2.07393700  -1.72604900
H    0.82465600  -0.23269900   1.94773800
H    1.86805800  -1.57163500   1.43785900
H    0.20961000  -1.43573900   0.78316300
H    2.55373700   0.54992500   0.21182700
H    3.19391900  -1.46614500  -0.69835200
H    2.69028000  -0.22345200  -1.96538900
H    1.45210500  -2.87600500  -1.42941500
H    0.91514400  -1.70594100  -2.58343200
H   -0.29894300   0.70050700  -0.43231500
H    0.24507500   2.57185300  -1.72374400