15

C    0.98511900   0.09963000   0.02524600
C    2.42395200  -0.04251800  -0.04076700
C    3.63549300  -0.18382500  -0.08937300
C    5.04057000  -0.30885100  -0.12585600
O    5.66150400  -0.71891600  -1.23179900
C    5.68614400   1.50553900   0.11389700
O    6.98987300   1.42137700   0.20866300
H    0.71356900   1.16679000   0.04350500
H    0.59840500  -0.37108100   0.94108000
H    0.51024300  -0.36608700  -0.85024900
H    5.54903000  -0.65673200   0.78459900
H    5.06204500  -0.74105200  -1.99315500
H    5.20125700   1.75085800   1.06510700
H    5.25320700   1.94233100  -0.79665300
H    7.43124600   1.38449500  -0.65376300