19

C    1.06688000  -0.29175600  -0.05458500
C    2.59158600  -0.51103900  -0.12009200
C    3.08441300  -1.37006900   1.03799100
C    2.99234400  -1.11143700  -1.48231000
N    3.19278300   0.83089700  -0.07965900
C    4.05850900   1.35672300   0.78541800
N    4.41742700   2.59965700   0.55647900
H    0.70874600   0.33855800  -0.88194700
H    0.76976400   0.16365100   0.90045700
H    0.57538800  -1.27052000  -0.14091200
H    2.80471100  -0.94971400   2.01565600
H    4.17212000  -1.53234200   1.00174700
H    2.60817500  -2.35644100   0.96241200
H    2.64946200  -0.48749300  -2.32089000
H    2.51318500  -2.09544300  -1.57813900
H    4.08065400  -1.24616800  -1.55464100
H    2.91361000   1.47962700  -0.82771900
H    4.40313800   0.72397600   1.61248700
H    5.08407400   2.94276300   1.25771900