16

O    4.64229600   1.00914000   2.02480000
C    3.47323700   1.07419500   1.74452800
C    2.95003000   1.77729300   0.50919900
C    4.01212100   2.16295700  -0.51894900
C    5.10611200   3.04657000   0.06830500
C    5.83710000   4.01605900  -0.90935600
N    5.00423700   4.44987600   0.13618000
H    2.69821200   0.62187400   2.40425300
H    2.36379900   2.65186700   0.84417700
H    2.21628300   1.11006000   0.02684200
H    3.54945400   2.66180000  -1.38265800
H    4.52234000   1.26132700  -0.88974200
H    5.58501800   2.58921500   0.94846600
H    5.38958800   3.98589100  -1.91190200
H    6.89635400   4.28871600  -0.85640100
H    5.25572500   5.06257100   0.92056600