15

C    0.91207900  -0.01220900   0.06821900
C    2.43508900   0.01706200   0.02033900
C    3.07943400   1.14409500   0.82713000
S    4.55204400  -0.01364500   1.42078900
O    4.73020900  -0.07960100   2.84639300
O    5.59571500   0.05362400   0.41844800
C    3.12020500  -1.15935500   0.71537400
H    0.53069700  -0.87886600  -0.49005400
H    0.49936500   0.89035100  -0.40429000
H    0.53989000  -0.06891200   1.10189800
H    2.78605700   0.07374800  -1.01978700
H    2.59715900   1.39677400   1.78388900
H    3.55069400   1.99163700   0.30970000
H    3.62001400  -1.93573200   0.11907000
H    2.64866300  -1.52035100   1.64227900