17

O    2.63610500  -0.83577500   1.24038500
C    1.45761200  -0.08990300   1.39625800
C    1.53376100   1.07672300   0.41844800
C    2.84191300   1.80797000   0.60291500
O    2.93740800   2.84850900  -0.43278200
C    3.98190900   3.51498400  -0.69841200
C    5.23113600   3.38663600  -0.05280600
H    2.59206100  -1.63431100   1.77430800
H    1.34802900   0.29222300   2.43028500
H    0.55187100  -0.67789700   1.16830100
H    0.68297000   1.75650000   0.57033800
H    1.48740200   0.69091400  -0.61124400
H    3.69096900   1.12129700   0.48096900
H    2.90972300   2.33305700   1.56851400
H    3.84170300   4.24184200  -1.50868800
H    5.40672800   2.66861400   0.75217300
H    6.05379300   4.03097600  -0.37210500