13

C    1.00118800   0.12304000  -0.10567800
N    2.40553600   0.03582700  -0.36319600
C    3.31287000  -0.82008900  -1.03040800
C    3.35034000   0.69776000  -1.15048800
C    4.52255500   1.42970700  -0.42081300
O    4.78874800   2.54464100  -0.70171500
H    0.76259700   1.12288700   0.27841700
H    0.71397800  -0.66271200   0.60562400
H    0.45487400  -0.04159000  -1.05522100
H    2.90034500  -1.45913100  -1.82070100
H    4.10629800  -1.27112500  -0.41558300
H    2.98248200   1.25717500  -2.02068800
H    5.05988800   0.81495900   0.33917200