17

C    1.17827600   2.34989500   2.03877100
C    0.83440700   1.14991200   1.15993800
C    2.03275000   0.71707000   0.35111200
O    1.63259800  -0.43937700  -0.47036800
C    2.42961400  -1.02775400  -1.26024600
N    3.69008500  -0.63075900  -1.39565700
N    4.43543100  -1.28280100  -2.21969200
H    0.29907200   2.65420300   2.62123100
H    1.49450900   3.21615000   1.43838500
H    1.98306100   2.11456500   2.75137800
H    0.01070500   1.40026200   0.47392500
H    0.49620800   0.30508000   1.77933600
H    2.87714800   0.38586900   0.97311400
H    2.38702200   1.49157600  -0.34474800
H    1.99067400  -1.87706200  -1.80962600
H    5.40202100  -0.97072400  -2.31703900
H    4.11614700  -2.08540800  -2.77447600