19

C    0.94714600   1.72937500   1.29776200
C    2.40459200   1.85842800   1.20521400
C    3.18974600   1.25527900   0.21559800
C    4.61046100   1.39373800   0.06897500
C    5.52638500   2.27942400   0.91320200
C    6.41159600   1.05643300   1.23956100
C    5.30655900   0.07899700   0.82576300
H    0.48422100   2.73310200   1.26901300
H    0.68246800   1.33894600   2.29903400
H    0.50759200   1.09277300   0.52050900
H    2.90392400   2.48828300   1.95079300
H    2.68891800   0.57405400  -0.48394400
H    4.93098000   1.29773200  -0.97831300
H    5.03818300   2.68861800   1.80805600
H    6.00654200   3.10094400   0.36648500
H    7.27733200   0.98728400   0.56752900
H    6.74837600   0.96073000   2.27979500
H    5.51964600  -0.73361800   0.12065300
H    4.69395500  -0.28671100   1.65973100