16

N    1.07183400  -0.23670800   0.00746900
C    2.44079100   0.00463100  -0.17400000
C    2.89669800   1.35879700  -0.06780600
C    3.32508500   2.49519300   0.02039200
C    3.81101200   3.86401000   0.11986500
C    2.75342000   4.88785400  -0.22829000
C    2.32714100   5.82344300   0.61623200
H    0.69941100  -1.18381300  -0.06423500
H    0.41613800   0.51915400   0.21131300
H    2.75371600  -0.44082300  -1.15556200
H    3.01633800  -0.65995200   0.52362400
H    4.68638300   3.95809900  -0.54735900
H    4.18659200   4.01810000   1.14622100
H    2.35644300   4.83909900  -1.24751200
H    2.71270500   5.90293200   1.63722000
H    1.58089700   6.55920000   0.30878700