18

C    0.90511500  -0.00196600   0.10641200
C    2.36697400   0.17809400  -0.01190600
C    3.17954900   1.06877900   0.87447100
C    4.19716600  -0.02576600   1.32585600
C    3.34961900  -1.20006100   0.94895700
C    3.79063800  -2.28987800   0.05384100
H    0.55116900  -0.92204600  -0.37830800
H    0.45298000   0.84266100  -0.45395100
H    0.54248300   0.06292900   1.14128100
H    2.79549200  -0.01162800  -1.00604400
H    2.59598100   1.46409900   1.71581300
H    3.66929800   1.89240900   0.33293800
H    5.13155500   0.01523900   0.75146600
H    4.41252300   0.02746100   2.40395200
H    2.56033100  -1.45917800   1.66854900
H    4.47672000  -1.95247500  -0.73490200
H    2.95003800  -2.85569700  -0.37045400
H    4.35281000  -2.99760500   0.69797500