18

C    1.31838300   0.60441600  -1.44855100
C    1.01381300   1.51765000  -0.33416400
C    0.87921500   0.00164700  -0.10129500
N    1.78874800  -0.67955300   0.70522700
C    3.14762600  -0.41019700   0.85611300
C    3.80583700  -0.67004800   2.21916100
C    4.11044200  -1.58215900   1.10088900
H    0.59324800   0.47678800  -2.25565800
H    2.36044200   0.44167400  -1.73588300
H    0.06494200   2.05907100  -0.32444500
H    1.83444300   2.01820800   0.18634800
H   -0.12750900  -0.41292400  -0.03656500
H    1.41202100  -1.46074400   1.24256300
H    3.50993200   0.43300300   0.26677000
H    3.15144600  -1.01842200   3.02258400
H    4.54015000   0.08127000   2.51908500
H    5.06767600  -1.49944200   0.58075600
H    3.67419100  -2.58453800   1.10181300