18

C    0.79792900  -0.25423700  -0.02924600
C    2.19646900   0.11125200   0.34238800
O    2.70342000  -0.67537700   1.28641200
C    3.27152500  -0.78013000  -1.45418000
N    2.91700400  -2.04980000  -1.51887700
C    2.69265600   1.45575300   0.13318900
C    3.76854600   1.99763600   0.74060700
H    0.47814200   0.23823400  -0.95639100
H    0.12768600   0.07584500   0.78224700
H    0.68766600  -1.34378300  -0.11546700
H    3.47305500  -0.28169800   1.71873600
H    4.22952400  -0.53850600  -0.99097800
H    2.86722700  -0.09657300  -2.20359700
H    3.35550600  -2.75156100  -0.92971400
H    2.13414600  -2.35650500  -2.08826800
H    2.13075500   2.05135200  -0.59163700
H    4.37751600   1.47009000   1.48335700
H    4.07368200   3.02360700   0.52639000