19

C    2.46948900  -0.50412400   1.41145600
C    2.49597500   0.00105900  -0.06504900
O    1.23231600   0.07286500  -0.61950200
C    3.07081500   1.35486900  -0.08949800
C    4.44134800   1.69206900   0.01315400
C    5.51432700   0.67550200   0.03303000
C    4.82491500   3.11667500   0.08329500
H    3.47084500  -0.55989500   1.85775200
H    2.04081100  -1.51676100   1.40690700
H    1.83084300   0.15122700   2.01802800
H    3.16327300  -0.68857300  -0.63031500
H    0.76757500  -0.76432500  -0.51402000
H    2.34151100   2.16970300  -0.17813600
H    5.18503300  -0.33727300   0.29087100
H    6.34192400   0.98923200   0.68662700
H    5.94154200   0.63755300  -0.98930800
H    4.04662800   3.79727900  -0.28411900
H    5.78270800   3.30366700  -0.42490100
H    5.00281600   3.35710600   1.15195600