13

C    0.95315000  -0.07962300   0.09740100
N    2.36603000   0.08254700   0.23459900
C    2.97595400   1.18734500   0.10822400
N    2.56557800   2.47804300  -0.17098000
C    3.63470200   3.30531900  -0.19325500
C    4.72633300   2.50837000   0.07752600
O    4.32736700   1.25915100   0.25400300
H    0.77319400  -0.83283300  -0.68670000
H    0.37835100   0.83338200  -0.13284400
H    0.57149300  -0.52721500   1.02935500
H    1.59820200   2.75038600  -0.33302100
H    3.57233700   4.37340500  -0.39184700
H    5.78847700   2.73000700   0.16270000