16

C   -1.49341000   0.83221700   0.18846000
C   -1.38710000  -0.67259500  -0.08212700
C   -0.03093100  -1.28596900   0.20888500
N    1.05795600  -1.10945400  -0.68397100
C    1.19965500  -0.26704700   0.40353500
C    0.77727000   1.22466000   0.38736600
O   -0.35283700   1.46709200  -0.33481900
H   -2.36926900   1.25125300  -0.31861900
H   -1.58567200   1.03223400   1.27104500
H   -1.60663500  -0.86736700  -1.14270700
H   -2.12690500  -1.21105900   0.52470100
H   -0.02837700  -2.24053400   0.74757600
H    1.73273300  -1.85248900  -0.88558900
H    2.06426000  -0.45230200   1.05401700
H    0.69984100   1.53299200   1.44600600
H    1.62229100   1.75509000  -0.08376200