17

C    0.97954800  -0.05952800   0.36584900
C    2.38579800  -0.22712100  -0.14901900
C    3.45301300   1.10531100   0.61049300
C    3.93432300   0.01308600   1.52106500
C    3.33896200  -1.12218200   0.64717900
C    2.60489000  -0.02668000  -1.51972900
C    2.80144300   0.17734800  -2.71210400
H    0.96198000   0.01132400   1.46205600
H    0.41385400  -0.96325800   0.08186300
H    0.47595100   0.80986700  -0.07640700
H    2.71433300   1.84455200   0.94118100
H    4.14305100   1.47930300  -0.15214600
H    5.02579200  -0.03227200   1.62566800
H    3.46440200   0.05953100   2.51153400
H    4.09318700  -1.58771000   0.00110100
H    2.79995000  -1.89092000   1.21814000
H    2.96655700   0.34345900  -3.76642500