9

N    0.91526300  -0.00160300  -0.00712900
C    2.08387400   0.03877700  -0.00393700
C    3.47798100   0.06772800  -0.00013500
C    4.26984300   1.25103700   0.00184300
S    5.86811700   0.82385800   0.00627500
N    5.61463200  -0.86159900   0.00584400
C    4.35758000  -1.12039300   0.00245000
H    3.90828400   2.28347700   0.00069600
H    3.99598500  -2.15396300   0.00162200