15

C    0.86258800  -0.05120000  -0.32825600
C    2.05060000   0.78758500   0.00137600
O    3.24818300   0.09232400   0.45907900
C    3.32405200   0.69489700  -0.73434000
C    4.22648600   2.05978400  -0.75668900
C    4.94400400   2.35659900   0.53121200
O    4.25114400   2.65846200  -1.76808400
H    0.15821700   0.54212200  -0.92953900
H    0.34861800  -0.34690600   0.59767800
H    1.14376100  -0.95334500  -0.88678400
H    1.87206600   1.71502800   0.56025900
H    3.56470300   0.11282700  -1.63619100
H    4.22093000   2.28556700   1.35663200
H    5.42050800   3.34166100   0.47069700
H    5.68889300   1.55498000   0.66448000