11

O    2.07368000  -0.56676300  -1.12084200
C    2.02471900   0.19940900  -0.07151600
O    1.33297100   0.00852100   0.89021700
C    2.92996000   1.41523100   0.06413800
C    2.38496100   2.54224200   0.66050500
C    4.28034200   1.30269200  -0.25696200
C    5.46711200   1.16448100  -0.52631400
H    2.66999500  -0.25456500  -1.81663900
H    1.34301100   2.53190900   0.99548600
H    2.97744800   3.45474500   0.77546600
H    6.51715700   1.05515300  -0.76489800