14

N    1.06778200   0.02926900   0.13312200
C    2.36767800   0.03117900   0.00242900
C    3.17116600  -1.14114800  -0.08837900
C    4.58618100  -0.73328800  -0.22850000
O    5.50184500  -1.51050900  -0.32875200
C    4.65462100   0.78830600  -0.22180900
C    3.20537200   1.27659100  -0.07125400
H    0.53430200  -0.83779300   0.17941600
H    0.53998900   0.89947200   0.19349500
H    2.82601500  -2.17730200  -0.06164200
H    5.12798200   1.13201500  -1.15289200
H    5.30471700   1.11605500   0.60227800
H    2.86643900   1.89533000  -0.91872000
H    3.04372500   1.87986200   0.83751800