13

O    1.44534200  -0.30675800  -0.90203600
C    2.25800000   0.06028900   0.14056200
C    2.80904500   1.38211700  -0.03105700
C    3.31070500   2.50021100  -0.16756100
C    3.83057600   3.80909400  -0.29780900
C    2.65933900   4.86423500   0.07167300
O    2.69336700   5.44851900   1.08848000
H    1.12090500  -1.20505100  -0.76731500
H    3.14020100  -0.60846900   0.29640800
H    1.75295000   0.06563600   1.13754000
H    4.08979000   4.05430500  -1.34205900
H    4.66321700   4.01208500   0.39096400
H    1.87852800   4.96741700  -0.71472100