15

C    0.99395200  -0.00996200   0.14235200
C    2.31372200   0.03022300  -0.01083600
C    3.21864700   1.24623700   0.00288600
C    4.42272700   0.81601700  -0.84095800
N    4.39126500  -0.62015700  -0.80187600
C    3.19176500  -1.17351000  -0.25786500
H    0.44055800  -0.95156100   0.11630900
H    0.41872300   0.90360100   0.30690000
H    3.54457400   1.47620800   1.03049700
H    2.73196700   2.14271100  -0.40010400
H    4.33516000   1.10951900  -1.91033600
H    5.41107900   1.17939900  -0.51143600
H    5.15792100  -1.20064500  -1.15381200
H    2.78551200  -1.94854000  -0.93526100
H    3.46584100  -1.71625900   0.67694300