19

C    1.32068600   0.52871200   0.84281800
C    2.45281800   0.11213500  -0.10007100
C    3.17922600   1.27504300  -0.70591000
C    4.26542200  -0.28956700   1.65053500
C    4.75449400  -1.08039800   2.78844400
O    4.59342200   0.92924100   1.60855100
C    3.42402400  -0.87929200   0.57644800
H    0.77503200  -0.34884200   1.21712700
H    0.59942200   1.16868500   0.31665700
H    1.69285300   1.09793600   1.71040400
H    2.00677000  -0.45224000  -0.94412000
H    2.66847300   2.23846900  -0.80563900
H    4.01922000   1.09331600  -1.38801100
H    3.89902000  -1.20140200   3.47924000
H    5.57360300  -0.57729100   3.31520000
H    5.03509400  -2.09242600   2.46265300
H    4.18256300   1.39041800   0.80366000
H    4.15896000  -1.27752000  -0.15398700
H    2.90358700  -1.76271600   0.97485500