14

O    3.20233200   0.15491200   1.51186700
N    3.86810300   0.98903300   0.77112800
C    4.54310600   0.30134300  -0.17741700
O    5.29820400   0.89046700  -0.98649300
C    5.59506200   2.36258600  -0.93738300
C    6.67994000   2.61574300   0.05243200
C    6.49133500   3.36786600   1.13698400
H    2.69927000   0.68235500   2.16241600
H    4.43976800  -0.78963600  -0.28641600
H    4.65617900   2.87775700  -0.69956900
H    5.89710900   2.55365400  -1.97304500
H    7.66238200   2.19272300  -0.17834500
H    5.52111200   3.81748400   1.36986700
H    7.31491000   3.58096300   1.82234300