17

C    1.11345000   0.16369000   0.45216500
C    2.50562100   0.12556700  -0.09822300
N    3.20669600  -0.90800300  -0.48899600
N    3.16628600   1.29670300  -0.22728700
C    2.82265500   2.68424100   0.06302300
C    4.22004600   3.10531800  -0.43855500
C    4.50666900   1.61374000  -0.71742200
H    1.10694600   0.59992800   1.46252700
H    0.69592300  -0.84843200   0.50733500
H    0.46028200   0.77639100  -0.18762000
H    2.68833000  -1.78624900  -0.38293100
H    2.60211300   2.83585200   1.13306000
H    1.95173400   3.02105100  -0.52408300
H    4.20939300   3.74292300  -1.32966600
H    4.85987900   3.55799200   0.32722300
H    4.63805200   1.30473400  -1.76636100
H    5.28531600   1.12082700  -0.11424600