15

C    1.08891300   0.00856300   0.13055000
C    2.55399300  -0.01550200  -0.05100600
N    3.18729500   1.06889800  -0.50390500
N    4.48205300   1.07745300  -0.45812500
C    5.24445900   0.06297000   0.25097000
C    4.56986100  -1.26502300  -0.02892000
O    3.15659500  -1.13880700   0.20838400
H    0.62490900  -0.63365600  -0.63624200
H    0.70745000   1.02990000   0.03098300
H    0.82861400  -0.41618900   1.11054400
H    4.92820100   1.88927700  -0.88820900
H    6.28180800   0.07210000  -0.10593400
H    5.24272900   0.29980200   1.32890700
H    4.92361900  -2.05581500   0.64115600
H    4.70165200  -1.58777100  -1.07244200