19

C    0.96377200   0.22464900   0.79165200
C    2.42025800   0.09157500   0.62908300
C    3.27858800   1.14707100   0.37722000
C    4.68366300   1.05153400   0.21572800
C    5.45150700  -0.23066700   0.29675100
C    5.35341000   2.26316600  -0.03395800
C    6.79632600   2.44628600  -0.23778700
H    0.66589000  -0.18192600   1.77445200
H    0.45242100  -0.41762200   0.05273400
H    0.60488500   1.25653300   0.69481300
H    2.83181100  -0.91961600   0.71708500
H    2.83444300   2.14477200   0.29522000
H    4.82254000  -1.10418600   0.49388400
H    6.20672400  -0.17151500   1.09584800
H    5.99199700  -0.41011400  -0.64562400
H    4.73753500   3.16901400  -0.08218200
H    7.38805800   1.52630600  -0.18538800
H    7.17575900   3.17176100   0.50458600
H    6.96303400   2.93728100  -1.21373100