18

N    0.75506200  -0.16754500  -0.45575300
C    1.97428100  -0.23466900   0.00399000
C    3.10189100  -0.43140900  -0.96877700
C    3.80010300   0.88597200  -1.11134100
C    2.28422000  -0.07302500   1.41312000
C    1.43983100   0.83435000   2.31366200
C    1.32924600  -0.62354000   2.48276600
H    0.55863300  -0.30618400  -1.44385100
H   -0.04480000   0.02396800   0.14289600
H    2.71200100  -0.78944100  -1.93566800
H    3.77834500  -1.19963700  -0.56551000
H    4.73309500   1.08771900  -0.58289800
H    3.34530200   1.68109600  -1.70555500
H    3.35086400  -0.12848500   1.63515200
H    0.62253400   1.38900900   1.84355400
H    2.00665000   1.41369500   3.04512100
H    1.81761200  -1.10001600   3.33502600
H    0.43288700  -1.14299800   2.13210100