11

O    1.03765100  -0.11691100  -0.04460400
C    2.16427400   0.20298200  -0.03565700
C    2.89783300   1.47859200   0.04996700
C    4.21909100   1.26967300   0.01325800
C    4.58323800  -0.17810300  -0.09333800
O    4.10127700  -0.97294300   1.01879400
C    3.35837400  -0.98892500  -0.09040900
H    2.34887100   2.41354900   0.17655000
H    4.97639400   2.05418700   0.07391600
H    5.53571300  -0.51121500  -0.51278800
H    3.01433100  -1.92297800  -0.55135900