15

C    0.98332500   0.03937600  -0.69365400
C    2.32263600   0.11565400  -0.05493000
C    2.88925200  -0.98589500   0.59971200
C    3.05032500   1.35657600  -0.08852200
C    3.25191100   2.06793500   1.33318400
N    4.30507000   1.46188500   0.62156500
H    0.87909400   0.75076400  -1.52377700
H    0.21639500   0.29901200   0.05965600
H    0.75721800  -0.97793000  -1.04051700
H    2.34890700  -1.93366000   0.66875200
H    3.90363500  -0.91764500   1.00396400
H    2.82015600   2.05787100  -0.89793000
H    2.85055600   1.52990900   2.19603800
H    3.12175300   3.15633600   1.33298500
H    4.93646500   2.13083800   0.17797300