14

C    2.80213000  -0.96895700  -0.30171200
N    2.82220000   0.09067400   0.66064900
C    3.03870000   1.41163900   0.30494800
C    2.73650100   2.46602700   1.39281200
O    3.13765400   3.57935300   1.26483700
C    4.57133500   1.67497500  -0.20460000
O    5.23729300   0.82528200  -0.66496700
H    2.43184100  -1.89567300   0.15191000
H    3.84591400  -1.12801700  -0.65872500
H    2.19267200  -0.68603800  -1.17206400
H    2.96214100  -0.16805700   1.64008400
H    2.49181700   1.67137200  -0.62359000
H    2.12801200   2.12582500   2.26223800
H    4.82417300   2.75562100  -0.07772100