15

C    0.90219000   0.06419600  -0.06313900
C    2.23835000   0.15452800  -0.10355900
C    2.98622000   1.39938200  -0.11855400
N    4.33780100   1.39984100  -0.15933500
C    4.78133100   2.75629600  -0.16428600
C    3.53343700   3.64818700  -0.12139900
N    2.49318100   2.63550700  -0.09611700
H    0.41522800  -0.91338600  -0.05434900
H    0.23613100   0.93206600  -0.03708300
H    2.87055500  -0.73517900  -0.12850700
H    5.46984900   2.90391100   0.68972500
H    5.41764100   2.91468900  -1.05602000
H    3.41333800   4.29446900  -1.00545400
H    3.46694000   4.28403400   0.77576800
H    1.50001200   2.85792700  -0.06485900