15

C    3.20673600  -1.12310300  -0.81835200
O    2.57752700  -0.03537500  -0.12437000
C    3.17353000   1.07866800   0.11640100
C    4.48346900   1.40355100  -0.24298500
N    5.01231700   2.59359500   0.05480400
C    6.33244000   3.04061800  -0.25719100
N    7.23569400   2.41227400  -0.86193800
H    2.45519800  -1.91593500  -0.86806600
H    4.08208100  -1.46982700  -0.25085600
H    3.48587300  -0.80549000  -1.83309000
H    2.54046700   1.79396800   0.65529900
H    5.11924300   0.69569700  -0.77922900
H    4.43428700   3.26904700   0.55577400
H    6.50566200   4.06198100   0.10498400
H    7.01618100   1.46450300  -1.17592500