21

C    3.39189400   2.31849900  -2.05822900
C    3.57250800   2.63503300  -0.58162200
C    4.35683100   1.53317000   0.22331900
C    5.72893500   1.42724700  -0.28393400
C    6.04469300   0.43840400  -1.25393800
C    6.77980200   2.39233100   0.09662800
C    6.58054100   3.23630300   1.34457300
H    2.75508000   3.07992600  -2.52903200
H    2.90189600   1.34442900  -2.20808800
H    4.34679000   2.31387100  -2.61027100
H    2.59648800   2.71551300  -0.08232600
H    4.07784900   3.60307800  -0.44390500
H    3.81947700   0.57970900   0.11580600
H    4.36444800   1.83622500   1.28048500
H    5.30163300  -0.30418800  -1.55836900
H    7.03730700   0.39709400  -1.71377800
H    6.85759500   3.04449600  -0.80882800
H    7.75739900   1.87574800   0.09341100
H    5.68368400   3.86757500   1.28424600
H    7.44357700   3.90021600   1.48033200
H    6.50340400   2.60326200   2.24094100