17

C    1.03639900  -0.13798400  -0.01645400
C    2.38237900   0.42077200  -0.46693800
C    3.05546800  -0.44479200  -1.52948700
O    4.31757200   0.11188000  -1.78692400
C    2.32309600   1.87594200  -0.92479700
N    1.28732500   2.62370900  -0.62443800
N    3.28851100   2.38289500  -1.67573400
H    0.63440200   0.39189700   0.85972100
H    1.16546700  -1.18273500   0.29615700
H    0.29207100  -0.12466600  -0.82716300
H    3.07560800   0.46238600   0.39561800
H    2.42583000  -0.48433500  -2.43659000
H    3.14179800  -1.47001400  -1.13172800
H    4.70633100  -0.27606700  -2.57912500
H    0.50518900   2.24431700  -0.10048400
H    1.25433900   3.60388900  -0.89522500
H    4.26795200   2.21819000  -1.42332300