16

C    0.21614900  -1.95284700   0.27415600
N    1.61768600  -1.63413500   0.29813900
C    2.55903100  -2.54629100  -0.29211200
C    2.01553800  -0.27742000   0.52252400
C    1.89590300   0.53150300  -0.81935100
O    2.23796500   1.79824600  -0.73259500
O    1.52138300   0.01025700  -1.82148500
H    0.06453100  -3.02884200   0.42327400
H   -0.16194300  -1.67343100  -0.73197100
H   -0.32630900  -1.36842900   1.02794900
H    2.54694300  -2.36029100  -1.38688100
H    2.25644500  -3.58396900  -0.10588000
H    3.57141800  -2.35538400   0.08554200
H    3.05973400  -0.24587500   0.86957700
H    1.36316200   0.18375400   1.27980900
H    2.52262500   2.08746700   0.14396600