15

N    1.35971000  -0.33251800  -0.80208500
C    2.62393300  -0.13061700  -0.18230100
C    2.98829700   1.30450100  -0.16045100
C    4.30340700   1.77023200  -0.12105700
N    4.61987800   3.05722900  -0.04927700
C    5.96269600   3.56933500   0.01809200
O    6.15312000   4.73551300   0.07819400
H    0.88758400  -1.18746200  -0.52931300
H    1.36313600  -0.23444500  -1.81231500
H    3.47310100  -0.72677000  -0.58974500
H    2.56878700  -0.44645200   0.88298700
H    2.15714200   2.02051500  -0.16366300
H    5.14574100   1.06770600  -0.13529200
H    3.88953900   3.77571400  -0.03876200
H    6.73249700   2.76975100   0.00559100