18

C    0.80202000   0.14122200   0.14910100
C    2.30002900  -0.07324800   0.00415200
C    3.22616400   0.84367700   0.83038700
O    3.58598800  -0.27299600   1.68416800
C    2.89052600  -1.15300100   0.91667000
C    3.97971800  -2.15855400   0.06440700
N    4.69663300  -2.95601900   0.90917200
H    0.24155200  -0.68935200  -0.30272100
H    0.50447200   1.06540400  -0.36632200
H    0.50740200   0.22769200   1.20551100
H    2.58106700  -0.16190000  -1.05540900
H    2.72592100   1.62378900   1.42241700
H    4.11246100   1.26253400   0.33158700
H    2.26790900  -1.87170400   1.47371800
H    4.60453300  -1.43157500  -0.47050200
H    3.30605100  -2.72070400  -0.59618300
H    5.51901600  -2.60121300   1.39205300
H    4.34832800  -3.86257500   1.21144100