16

C    1.02904800  -0.12877200   0.13825300
C    2.54140200   0.08286100  -0.04843600
C    3.15854100   1.23101800   0.75322300
C    4.47115400   0.68450200   1.28966700
O    5.45075900   1.24455700   1.63617600
C    4.28073100  -0.87355700   1.34384100
N    3.30883300  -1.08583800   0.35054200
H    0.67064900  -0.98055700  -0.45511300
H    0.50978300   0.77397700  -0.20966000
H    0.78676600  -0.29265200   1.19753000
H    2.72993800   0.20165400  -1.13322500
H    2.54333600   1.49314000   1.63108300
H    3.30967600   2.14869000   0.17018400
H    5.17742500  -1.49948900   1.22957100
H    3.86920500  -1.03997800   2.36579300
H    3.26475500  -1.95161600  -0.19207300