14

C    1.24483200   0.14431900  -0.77417700
C    2.40998600   0.18044700  -0.04717100
C    3.40384300   1.30678100  -0.13036600
C    2.73019000   1.86991800   1.09127900
C    1.75503500   2.83625600   1.03977900
C    4.79634200   0.91746800   0.05573600
N    5.89412100   0.60157800   0.21584300
H    0.58966900  -0.72958100  -0.71870400
H    0.95348600   0.95747600  -1.44587800
H    2.65182200  -0.63880700   0.63861600
H    3.27559200   1.93334700  -1.02410000
H    3.05122200   1.46850700   2.05863300
H    1.38598000   3.23955100   0.09191800
H    1.34430700   3.25192500   1.96419200