12

O    1.06898300   0.23212800   0.29616200
N    2.30185500   0.03957800  -0.07805200
C    2.96770900   1.17147400  -0.24848100
C    4.38178700   1.29254800  -0.66895600
C    4.55234300   2.77005100  -0.68219800
C    3.38216000   3.32417800  -0.31746800
O    2.43808200   2.35216100  -0.05957500
H    0.67115700  -0.65221600   0.39254600
H    4.55565000   0.81019200  -1.65110600
H    5.05985900   0.76708300   0.03220100
H    5.46373800   3.30627400  -0.94146900
H    3.03773300   4.34748100  -0.18807200