12

C   -0.31378400   1.18387000  -0.03041200
N   -1.10505200  -0.00090300  -0.08129300
C   -0.31282500  -1.18554700  -0.04424800
C    1.08553200  -0.67058700   0.03573200
C    1.08499000   0.66914500   0.04355300
H   -0.62279400   1.81182300   0.83552000
H   -0.52599000   1.82367200  -0.91651800
H   -2.12478700  -0.00099300  -0.13662600
H   -0.52451800  -1.81513500  -0.93776300
H   -0.62131900  -1.82381600   0.81429700
H    1.95556400  -1.32501700   0.07907600
H    1.95449300   1.32372800   0.09453200