13

C    0.92610800   0.24438200   0.00954100
C    2.37053600  -0.08717200  -0.00136300
N    3.37725200   0.75158100  -0.00936500
N    4.52558800   0.28358400  -0.01630000
C    4.65939200  -1.01991500  -0.01527200
C    5.92415100  -1.79239900  -0.02384500
S    3.05085600  -1.69246100  -0.00344300
H    0.31376700  -0.66503400  -0.00168700
H    0.67889900   0.85343700  -0.87239000
H    0.68614600   0.82575700   0.91209800
H    5.72643500  -2.87075100  -0.01014900
H    6.52619800  -1.52763500   0.85783600
H    6.50257400  -1.54636200  -0.92663000