11

C    1.32651000  -0.36024300  -0.76340800
C    2.58338800  -0.14149500  -0.22887600
C    3.19725300   1.12075800  -0.31312000
C    4.46707300   1.35186100   0.22389700
C    5.08673200   2.60898700   0.14395000
N    5.59969300   3.65285900   0.07681100
H    0.84896100  -1.34215200  -0.69788500
H    0.77471700   0.44095500  -1.26622700
H    3.10985500  -0.96300800   0.26792700
H    2.67536200   1.94692300  -0.80912900
H    5.02046400   0.54975100   0.72775200