17

C    0.85597500  -0.00242100  -0.02914700
C    2.31033000   0.01496700   0.01980300
C    3.52064700   0.02818800   0.07269800
C    4.97380100   0.04459700   0.11750500
N    5.59828500  -0.67015200  -1.01259500
C    5.66362000   1.41073600   0.00661800
N    6.98032100   1.03932800  -0.48296900
H    0.45931100   1.02286500  -0.04843300
H    0.44539400  -0.52032300   0.84912600
H    0.50884300  -0.52219900  -0.93386300
H    5.32500300  -0.45715100   1.03466800
H    5.28095300  -0.38127300  -1.93899400
H    5.68878700  -1.68473000  -0.94043500
H    5.69632000   1.96961100   0.95377300
H    5.16735400   2.03787200  -0.74663500
H    7.42297500   1.58415900  -1.22028700
H    7.63901400   0.61816500   0.16996800