17

C    1.57040600  -0.58143400   0.87588400
C    3.01811100  -0.13647100   0.90075300
C    3.29313900   1.30099900   0.23516700
N    2.52615300   2.26894500   0.89493400
C    4.73903700   1.69982400   0.15929300
C    5.78415400   0.95006900   0.51624600
H    1.51660300  -1.62344200   1.22298400
H    1.14670400  -0.55736600  -0.13919900
H    0.92989300   0.00856500   1.54727400
H    3.65055500  -0.79827700   0.28949000
H    3.42606600  -0.09999200   1.92104300
H    2.85733700   1.17402500  -0.77851600
H    2.94446700   2.89200900   1.59071200
H    1.51749100   2.34489600   0.74892500
H    4.91034800   2.69825400  -0.25821000
H    5.68975100  -0.04972400   0.94655200
H    6.79973500   1.32791500   0.38037400