18

C    2.08713300  -0.95474200  -1.08145000
N    2.21528500   0.07910800  -0.09196300
C    3.03079000   1.21071000  -0.17907600
C    4.04581500   1.18739900  -1.29954200
C    2.19865200   2.59814000  -0.08257100
O    2.96523700   3.04437600   0.99537300
C    3.53723100   1.77204400   1.19671000
H    1.67915500  -0.52965800  -2.01636400
H    1.41797000  -1.73983000  -0.71458900
H    3.07672300  -1.37770600  -1.31677200
H    1.60749900   0.01904900   0.72852600
H    4.61323500   2.12707000  -1.28514400
H    3.56906700   1.09856900  -2.28640300
H    4.76108100   0.36096100  -1.17006700
H    1.13242000   2.44315100   0.15669800
H    2.31358300   3.19444300  -1.00155300
H    4.63554500   1.79655400   1.26692700
H    3.11538800   1.24034400   2.06841000