10

O    1.01531800   0.13996900   0.18368100
C    2.18559000  -0.02387400   0.07241100
O    3.01696900   1.14013700   0.01305100
C    4.29396200   1.05693000  -0.10695000
N    4.99271400  -0.07542700  -0.18937200
C    4.33356500  -1.21924400  -0.14574300
C    2.92256600  -1.26700100  -0.01530900
H    4.81020800   2.02483500  -0.14001100
H    4.91764000  -2.14432900  -0.21433100
H    2.35959700  -2.20347500   0.02256200