22

C    3.20030700  -1.30397800   1.71055200
C    2.75822600  -0.84654100   0.32087200
C    1.24202800  -0.97225300   0.15119400
C    3.16886000   0.61161500   0.01328900
C    4.68076100   0.78993000   0.02749700
C    5.01764000   2.31409900  -0.39424500
N    6.39585100   2.49938400  -0.36237300
H    4.29468600  -1.33983700   1.82235400
H    2.82857700  -2.31829700   1.91353400
H    2.79448300  -0.64160900   2.49259600
H    3.24017200  -1.49467100  -0.43234800
H    0.70906600  -0.34322500   0.88154900
H    0.92737400  -2.01333200   0.31345600
H    0.91732300  -0.67693500  -0.85737400
H    2.70295100   1.28338800   0.75391000
H    2.77175200   0.89186600  -0.97532900
H    5.17965500   0.12698800  -0.69467100
H    5.11264700   0.62039300   1.02335300
H    4.52019000   2.96132100   0.34142400
H    4.62745900   2.46142600  -1.41053500
H    6.88394300   2.73580400   0.50489600
H    6.98591000   2.26964200  -1.16570500