15

C   -0.64239500   0.53074200   0.87273500
C    0.42691000  -0.21116900   0.20333200
C    1.69162400   0.33585300  -0.08453800
O    2.57005600  -0.38632100  -0.67418800
C    3.92907300   0.24233500  -0.96885000
C    4.76158200  -0.77258300  -1.64263600
O    4.08754400   1.35210000  -0.63828300
H   -0.95669500  -0.02025600   1.77939700
H   -1.54400300   0.52953100   0.23112500
H   -0.37437200   1.56100400   1.13668200
H    0.26004300  -1.25138100  -0.10126400
H    1.96533100   1.36991900   0.17707300
H    4.86467600  -1.65290100  -0.99119400
H    5.74317600  -0.34017800  -1.86426400
H    4.26437800  -1.09870300  -2.56803500