15

C    1.11389100   0.01823500   0.78891700
C    2.29456500   0.00303200   0.01601900
C    2.97441200  -1.23032600  -0.43848300
C    4.30552800  -0.75630100  -0.97437700
O    4.99497200  -0.00254600  -0.00727000
C    4.30836700   0.72107900  -0.99909300
C    2.97911100   1.21787100  -0.47945300
H    0.64635200   0.96427600   1.07891000
H    0.64281800  -0.91576600   1.11049500
H    2.32925300  -1.71857300  -1.20122600
H    3.06269100  -1.97797400   0.37319600
H    4.89987700  -1.38030400  -1.64660700
H    4.90506600   1.31996100  -1.69178000
H    3.07028600   1.99195500   0.30672100
H    2.33577400   1.68274100  -1.25817700