13

C    0.93723900   0.00626700  -0.11954500
C    2.47490600  -0.00828400   0.04865700
C    3.08441300  -1.26452000   0.65050400
O    3.85428000  -0.77115700   1.77844500
N    3.77352500   0.51370300   1.93319000
C    2.99849400   1.00833700   0.97377500
H    0.64804000  -0.78080100  -0.82771300
H    0.60554600   0.97099600  -0.52425000
H    0.43594500  -0.17384500   0.84111700
H    2.91836900   0.21369400  -0.94612700
H    3.79889000  -1.81724200   0.02046600
H    2.36265400  -1.98193400   1.07582200
H    2.82424800   2.08853700   0.95192600