11

C    0.96022100   0.03047300  -0.00666100
C    2.42507500   0.05918400  -0.00049900
C    3.25658500   1.20941200   0.00264200
S    4.85185900   0.75810500   0.00793700
N    4.55940300  -0.92784800   0.00636800
C    3.29328700  -1.13947000   0.00204100
H    0.50810400   1.02813800   0.00034500
H    0.59760800  -0.55186900   0.86171600
H    0.60642300  -0.53364200  -0.89096700
H    2.92826800   2.25184900   0.00193600
H    2.91393600  -2.16704000   0.00043300