12

C    2.70438500  -1.10146300   0.40854400
C    2.13454300   0.12724000   0.16105200
C    2.91484500   1.30251800   0.07622200
C    2.37847900   2.60002600  -0.17765100
S    3.58900700   3.75190200  -0.20962200
C    4.77871200   2.46113400   0.11800500
N    4.28174200   1.28891900   0.23489600
H    2.08755700  -2.00095700   0.47121800
H    3.78554600  -1.19284400   0.54600700
H    1.05355200   0.21494400   0.02415300
H    1.32678500   2.84746900  -0.33487700
H    5.84126300   2.70768600   0.20325200