11

O    1.08069400  -0.32546800   0.02269100
C    2.32349600  -0.39667100  -0.25713300
S    3.02766800   1.92238600  -0.15498900
O    2.70166800   2.44710600  -1.46282400
O    2.33098000   2.20277600   1.08601600
C    4.69874700   1.84925900   0.07926700
C    5.89769800   1.78672500   0.22933900
H    0.87556500  -0.32981300   0.97611300
H    2.55614600  -0.48958700  -1.32509300
H    3.05603900  -0.68776100   0.50947700
H    6.96946600   1.74021500   0.36572500