16

C    1.62321700  -0.38752400   0.83571400
N    2.09173500   0.62135700  -0.08872000
C    3.21993000   1.35428800   0.07299700
C    3.77516300   2.22572200  -1.02412000
C    3.07771500   2.99828500   0.01960400
C    3.87983000   3.64784100   1.12095000
O    4.89542500   3.16031000   1.52822300
H    1.52210600  -1.34884100   0.30898400
H    0.63383800  -0.10089300   1.22536800
H    2.33258000  -0.49195700   1.66423300
H    1.51688700   0.79505100  -0.91470500
H    3.88974300   1.04598200   0.88207600
H    3.30358700   2.14555600  -2.00779700
H    4.86915300   2.26627500  -1.02282700
H    2.07018800   3.37473000  -0.17999100
H    3.47006500   4.60683800   1.50753900