17

C    0.84074100  -0.06068900   0.06426100
C    2.36404400  -0.01416900   0.05409300
C    2.95780900  -0.65926200  -1.20852600
O    2.95202600  -1.98764700  -1.31553000
C    2.95149800   1.41724600   0.11069100
C    4.36296500   1.32107400  -0.22729400
C    5.53150200   1.13779900  -0.54774000
H    0.46027400   0.41305500   0.98108700
H    0.47195200  -1.09531100   0.04782100
H    0.41769600   0.47243400  -0.79988100
H    2.76245700  -0.56654200   0.92410500
H    4.09931900  -0.23696900  -1.11919100
H    2.64507400  -0.21380800  -2.16904000
H    3.03991200  -2.42965600  -0.45515400
H    2.82327400   1.84751400   1.11613000
H    2.44501400   2.08604800  -0.60431700
H    6.56749500   1.00831400  -0.82571300