15

N    1.13697800   0.01578400   0.18361400
C    2.48991000  -0.16970000   0.03344500
C    2.89182200  -0.87329100  -1.16462200
C    3.24706200  -1.43524500  -2.17430300
C    3.30216900   1.34280200  -0.08876200
C    3.77755600   1.97670100   1.17817200
N    4.62428700   1.30398100   0.21902900
H    0.74133700   0.25270700   1.08769700
H    0.51869700   0.04090700  -0.62208800
H    2.95527900  -0.56793600   0.94841000
H    3.55837400  -1.95562200  -3.06544700
H    2.90532200   1.86390200  -0.96682700
H    3.63229200   1.45398700   2.13020100
H    3.82322200   3.06892700   1.23927900
H    5.38616700   1.68661300  -0.33810900