17

C    4.30694400  -1.30202200   1.19008800
C    3.22401200  -0.54769600   0.47882900
C    1.99640200  -1.14692100   0.20470800
C    3.38441900   0.79582100   0.05160500
C    4.54158400   1.53193400   0.24708800
C    4.71638000   2.92701500  -0.19342400
O    5.97425100   3.36945300   0.14956100
H    4.58461000  -0.79842800   2.12860300
H    5.21193900  -1.37002500   0.56728000
H    3.98721300  -2.32167600   1.43490900
H    1.79181700  -2.17949800   0.50006300
H    1.20197700  -0.60260200  -0.31354800
H    2.54252500   1.27353500  -0.46147100
H    5.40403200   1.08554300   0.75689100
H    3.88740300   3.52253000   0.25852400
H    4.50905900   2.95552400  -1.28993800
H    6.10425700   4.28039600  -0.13197900