19

C    0.99703900  -0.18100200   0.42465500
C    2.48574600  -0.05077400   0.64900100
C    3.09058600   1.44769100   0.39474600
N    2.44056500   2.31716300   1.26555400
C    4.60728600   1.45134100   0.56046000
C    5.24268600   2.78616600   0.17733000
H    0.73036400  -1.24764800   0.47050000
H    0.69394900   0.18306900  -0.56828000
H    0.40051100   0.32979400   1.19411300
H    3.06480500  -0.64162400  -0.07591200
H    2.79388000  -0.33899100   1.66422100
H    2.76068800   1.67302200  -0.63564100
H    2.84536400   2.55334900   2.17538700
H    1.49540100   2.65928300   1.08181200
H    5.00756600   0.64473900  -0.07010600
H    4.85651700   1.17775800   1.60009300
H    5.01058800   3.05808700  -0.86276400
H    6.33492100   2.72070600   0.26839700
H    4.90424600   3.60681200   0.82856700