11

O    1.18975900   1.07217200  -0.79085000
N    2.46490000   0.89118600  -0.96862700
C    3.13247500   0.99710600   0.17336200
C    4.60209100   0.76257000   0.14945100
C    4.73482200   2.19231900  -0.07697500
C    4.67673800   3.40266600  -0.25650200
H    0.76542600   0.97738400  -1.66452300
H    2.61776400   1.28100800   1.10253300
H    4.94651200   0.15405500  -0.69710300
H    5.01548200   0.42874300   1.10913600
H    4.66324600   4.47144500  -0.41542300