17

C    1.23175400  -0.38882800  -0.06766700
C    2.61712900   0.08923500   0.13755100
C    3.76910000  -0.83434800   0.33473600
C    4.10351100  -0.41558400  -1.04694500
O    4.59857600   0.75172900  -1.30695300
C    4.40205200   1.73016100  -0.26508300
C    2.95560600   1.54545000   0.21237800
H    0.68500800   0.22991800  -0.79358700
H    0.69570500  -0.29910000   0.89699800
H    1.18886600  -1.44522600  -0.36311600
H    3.50457800  -1.89379100   0.40165500
H    4.49892200  -0.53295500   1.10124400
H    3.97007300  -1.06581700  -1.91787400
H    5.14541700   1.55788700   0.52720400
H    4.59402900   2.70632000  -0.72145600
H    2.85006700   1.89924200   1.25345300
H    2.25561900   2.13313500  -0.39975800