9

C    0.93111700   0.02031600   0.19794600
O    2.29743200   0.17343300  -0.00003100
C    2.89783200   1.41028400  -0.19795600
H    0.59049600  -0.70324400  -0.57415700
H    0.38037700   0.96871800   0.18211400
H    0.82225400  -0.53990200   1.15188300
H    3.69355200   1.48983700   0.57419000
H    2.18765100   2.24600200  -0.18212400
H    3.46230300   1.32593600  -1.15186500