15

C    1.88254900   1.59211400   1.29823500
N    3.05931000   1.82378200   0.89098100
O    3.67591300   0.66591500   0.41418100
C    4.86901200   1.01639500  -0.17129400
C    5.97651100   1.56319300   0.78220300
N    6.79475400   0.45942600   0.36779900
C    5.77817000  -0.20593200  -0.40382900
H    1.33259400   2.44419400   1.70466300
H    1.42074200   0.59771800   1.25154700
H    4.74571800   1.65200800  -1.06460000
H    5.67960900   1.48762600   1.84791500
H    6.44589700   2.54816300   0.62223700
H    7.81354900   0.33618800   0.37749900
H    6.10597400  -0.46362300  -1.42537200
H    5.41216000  -1.12757300   0.09010200