17

C    1.19123700   2.11453200   0.99539500
C    2.15285700   0.96685500   0.70343700
N    3.46602400   1.44544200   0.29088300
O    3.52442500   2.07804100  -0.83986600
C    4.65871000   1.33310200   1.00479600
N    5.66078400   1.86912100   0.43641000
C    6.98087200   1.86146200   1.00208200
H    0.22809300   1.68351200   1.29875200
H    1.02731800   2.73050100   0.10177300
H    1.56005700   2.74712600   1.81420000
H    1.78622100   0.33078600  -0.11751700
H    2.32529400   0.33411500   1.58437200
H    4.49472300   2.33390000  -0.90683800
H    4.59919100   0.79903200   1.96217900
H    7.31941900   2.90454700   1.09961700
H    7.66093200   1.38291600   0.28039700
H    7.04322900   1.35135800   1.97497200