13

C    1.00024100  -0.06565200   0.01003100
C    2.47696100  -0.03185600  -0.04254200
N    3.22257300  -0.55690600  -1.08226000
C    3.45449700   0.83768300  -1.24001800
C    4.54208900   1.49740100  -0.65021900
C    5.46531600   2.11814300  -0.15750000
H    0.61933600   0.81581600   0.54619100
H    0.70088200  -0.94779000   0.60467000
H    0.53717400  -0.13484100  -0.98314900
H    3.03319500   0.16168600   0.88248000
H    2.67478700  -0.97158700  -1.84110100
H    2.92433700   1.34310500  -2.05707900
H    6.29559800   2.66063700   0.26933800