21

C    2.84931400  -0.94554200  -1.22222900
C    2.46147800  -0.00687000  -0.08155800
C    3.05178800   1.40317600  -0.22685100
C    2.53798600   2.17039100  -1.43966000
C    2.69475800   2.24469500   1.12510900
C    4.47949600   1.45609900   0.04083000
C    5.37363500   2.41602400  -0.44413300
H    2.43210800  -1.94508300  -1.04110000
H    3.94253000  -1.05364800  -1.30612200
H    2.46224400  -0.60010800  -2.19099500
H    2.78331300  -0.43579500   0.88167500
H    1.36602100   0.08851500  -0.02751400
H    2.91690700   1.72573100  -2.37049500
H    2.81789400   3.23336700  -1.42522500
H    1.44086900   2.12070800  -1.46587600
H    3.02914000   1.74818700   2.04422700
H    1.59309200   2.23263300   1.08799700
H    3.04525400   3.28319700   1.08875300
H    4.87569200   0.69819400   0.72975300
H    5.03119200   3.30340700  -0.98419300
H    6.45097400   2.28161400  -0.30921800