12

O    1.07899000  -0.40989400   0.22455800
C    2.36742900  -0.36346200   0.04984400
C    2.90710900   1.61014400   0.09103200
O    2.27563300   2.10069900   1.13664100
C    4.32083200   1.50863600   0.06050100
C    5.52853300   1.38710400   0.03853700
H    0.57100100  -0.39403900  -0.60163300
H    2.79216400  -0.60520200  -0.93402900
H    2.93789100  -0.64370300   0.94130200
H    2.38433800   1.82107100  -0.85135600
H    2.84208300   2.16231700   1.92233700
H    6.60434400   1.29917400   0.01361600