10

C    1.17796500  -0.26106500   0.53211100
C    1.96224600   0.25003000  -0.46445900
S    2.54325300   1.89949600  -0.24986800
O    1.65991500   2.84148100   0.35496600
O    3.74280000   1.34624400   0.46436200
C    3.06688300   2.44068700  -1.80176400
N    3.40680100   2.84745500  -2.82937400
H    0.75805300  -1.26806200   0.42145400
H    0.92234700   0.31129500   1.43225700
H    2.35275800  -0.30394600  -1.32719500