16

C    1.12617800  -0.41285700   0.03720200
C    2.65364300  -0.36510200  -0.00043300
C    3.15207500   1.09253000  -0.03778000
C    4.66518300   1.08596300  -0.07430100
C    5.32778200   2.48383300  -0.11174500
O    4.78981100   3.53502100  -0.09953400
H    0.79362800  -1.46046300   0.06345500
H    0.68639800   0.06014700  -0.85263100
H    0.72938700   0.09121600   0.93017400
H    3.02508300  -0.90576100  -0.88578400
H    3.06798500  -0.87483100   0.88421700
H    2.79397300   1.63451600   0.85082300
H    2.75086300   1.60259600  -0.92685400
H    5.10169100   0.58926200  -0.96171700
H    5.14406900   0.62295100   0.81006600
H    6.45451900   2.45650400  -0.15320600