17

C    0.77177600   2.92750000   2.43929600
N    1.67837700   2.15035300   1.63086500
C    2.37877800   2.56226700   0.57791700
N    2.25209000   3.82374100   0.20289900
C    3.25006600   1.51563100  -0.07201100
O    3.08427900   0.33887900   0.63328100
C    3.83348700  -0.77141400   0.16328400
H   -0.22024900   2.45072200   2.40752600
H    0.72299100   3.95503300   2.06606300
H    1.12652200   2.90463200   3.48143600
H    1.84205500   1.15443300   1.84684800
H    2.83180300   4.04115200  -0.61637400
H    4.29693500   1.88259800  -0.05870100
H    2.94700600   1.42740800  -1.13555700
H    3.59637400  -1.61663500   0.81799600
H    4.91429700  -0.56207000   0.21361400
H    3.55227700  -1.02134100  -0.87255600