14

O    0.97027900  -0.06124000   0.35354800
C    2.29808100  -0.03577900   0.04548500
C    3.10911100   0.98034100   0.88447900
N    4.01424700  -0.08733100   1.23511100
C    3.20162100  -1.14825200   0.69451500
C    5.32955000  -0.02465500   1.75855200
O    5.77952500   1.04268200   2.05231000
H    0.43499400  -0.35079100  -0.39296200
H    2.51900800   0.06498600  -1.03031600
H    2.54908400   1.34096700   1.77086400
H    3.61208400   1.84537800   0.41891000
H    3.76487000  -1.88815200   0.10171200
H    2.64607800  -1.66899900   1.50026500
H    5.82603100  -1.00899600   1.86006500