17

C    0.92111600  -0.00139500   0.05851600
C    2.46691600   0.00006500   0.10082100
C    2.98283400   0.00290800   1.55859600
C    3.02919900   1.15136600  -0.67530900
C    3.80793200   0.70211600  -1.74433000
C    3.80920900  -0.70564000  -1.74201800
C    3.03127400  -1.15277800  -0.67151400
H    0.53841200  -0.00341300  -0.97178200
H    0.53540500   0.88830900   0.57642300
H    0.53700400  -0.89011000   0.57930200
H    4.08090600   0.00396500   1.60569300
H    2.60791800  -0.88577500   2.08609300
H    2.60633900   0.89264400   2.08319000
H    2.84495000   2.19964900  -0.42510500
H    4.32881400   1.33765900  -2.46208100
H    4.33124400  -1.34259500  -2.45767800
H    2.84891100  -2.20055500  -0.41783600