13

O    1.61426800   0.36630400   0.81147900
C    2.52379300  -0.06563800   0.20092200
N    2.80069100  -1.27021800  -0.35602500
C    4.05218600  -1.38676700  -1.06530000
C    4.63833500  -0.00492300  -0.93246800
C    3.89596300   1.32654200  -1.43404200
N    3.74600500   0.75246900  -0.16477200
H    2.10682000  -2.01217000  -0.32220600
H    4.72048600  -2.14293200  -0.62191300
H    3.91288400  -1.64427100  -2.13134000
H    5.72074500   0.15977100  -0.87264500
H    4.63655100   2.12731200  -1.54866400
H    3.01738600   1.34891200  -2.08938100