17

C    1.56595600  -0.14848900   0.18788600
N    2.36899800   0.60452700  -0.73197400
C    3.12953200   1.77514900  -0.39457500
C    4.44215800   1.14414900   0.05210200
C    4.69417400   0.78232300   1.47794200
N    5.23912900   0.88633000  -0.93154400
O    6.38934100   0.34481600  -0.54028900
H    2.14692300  -0.98802500   0.61394300
H    0.71171600  -0.58234700  -0.35360100
H    1.21234300   0.49948000   0.99898200
H    2.59108100   0.17386200  -1.63324900
H    2.63925600   2.33906600   0.40848100
H    3.27163300   2.40363200  -1.28161700
H    3.80631100   0.92947700   2.10514100
H    5.49749900   1.42725400   1.87166600
H    5.05081000  -0.25420300   1.56587900
H    6.90945700   0.22235400  -1.34751400