10

C    0.95919700  -0.00904000  -0.00150900
C    2.18362400  -0.02672600   0.00098200
C    3.56864700  -0.03865200   0.00355200
C    4.43149600   1.10569100   0.00093800
O    5.65425200   0.66526400   0.00479000
C    5.56376500  -0.71780100   0.00971000
N    4.35931200  -1.15789800   0.00911400
H   -0.12275400  -0.00058500  -0.00456300
H    4.24495300   2.18095100  -0.00334700
H    6.50814200  -1.26369400   0.01344300