15

C    0.60528100  -0.63446300  -0.51302500
C    2.00995100  -0.18430600  -0.40331600
N    2.59622100   0.49438900  -1.32588900
C    4.23811800   1.21395000   1.53259700
O    4.06892200   0.08203800   0.77763500
C    2.82632900  -0.52889700   0.81173400
H   -0.00223700  -0.04368200   0.19309600
H    0.52110600  -1.68593400  -0.20108500
H    0.19648900  -0.51316200  -1.52376200
H    3.57004100   0.77663100  -1.17459100
H    2.13229900   0.75746400  -2.19381900
H    3.64621500   1.29792500   2.45040300
H    5.24835700   1.61775400   1.46845800
H    2.95761000  -1.62649000   0.80335500
H    2.23898400  -0.28375600   1.71569800