17

C    2.21562700  -0.32039300  -1.53326600
C    2.49940300   0.13106500  -0.10271600
C    3.24962900   1.45185400  -0.07950400
C    2.47972300   2.67718200  -0.60277000
O    2.79863900   3.71190000   0.34242800
C    3.32124600   3.15181400   1.44065500
O    3.55449900   1.84403200   1.28656300
H    1.68994200  -1.28393300  -1.51813200
H    3.14429600  -0.45670500  -2.10673900
H    1.57382700   0.39014400  -2.07670300
H    3.10659100  -0.61884000   0.42476800
H    1.56243900   0.25324700   0.46468000
H    4.23777600   1.33892500  -0.56183700
H    1.38436900   2.54391100  -0.58833600
H    2.78949500   3.01784200  -1.59827400
H    4.26089900   3.68970200   1.77397900
H    2.66552300   3.33385400   2.34927700