17

C    4.21476900  -1.64337300  -0.99776000
N    3.55605800  -1.10262700   0.17905400
N    3.21806000   0.14635100   0.30577100
C    3.94977400   1.19145700   0.25312900
C    3.38245300   2.57042100   0.06774000
O    4.25045800   3.54058300   0.50910100
C    4.21916400   3.77933100   1.90039300
H    4.60825900  -2.63430600  -0.74179300
H    5.03557100  -0.97740100  -1.29666600
H    3.49517700  -1.73912100  -1.82717300
H    3.06144900  -1.73630200   0.81236700
H    5.04770500   1.10454100   0.34547400
H    2.37309500   2.61883800   0.52210500
H    3.24637800   2.69723800  -1.02377000
H    4.93469300   4.58325300   2.10611800
H    4.51759600   2.88446400   2.47929000
H    3.21494600   4.09770700   2.22912800