15

C    0.80797600   0.25252900   0.02905100
C    2.27269900  -0.07114600  -0.01493000
O    2.71292000  -0.59115500   1.11147600
C    2.90803000  -0.37745500  -1.29975400
C    4.01252400  -1.13431500  -1.45727100
C    3.03798900   1.78343700   0.03271900
O    3.91666400   1.94517000   0.76061400
H    0.49484700   0.87255500  -0.82054200
H    0.53499200   0.72904800   0.98016700
H    0.26432700  -0.70526700  -0.03160900
H    3.61338700  -0.94193900   1.05778600
H    2.41311500   0.04738800  -2.17829200
H    4.55183000  -1.60381000  -0.62782000
H    4.40817900  -1.33611700  -2.45527300
H    2.47199500   2.44836700  -0.65676200