18

C    1.00911500  -0.28241700   0.01681700
C    2.47729300  -0.23323200   0.01656100
C    3.08051400   1.72139500  -0.00277300
C    2.52487300   2.22977700  -1.29858300
C    2.52532200   2.25516400   1.28299100
C    4.47767100   1.41505300   0.00000100
N    5.60603500   1.13724300   0.00252900
H    0.80068700  -1.37666400   0.02791700
H    0.54311800   0.10773100  -0.89671100
H    0.54280100   0.12619100   0.92207900
H    2.99945700  -0.52575500  -0.90168700
H    2.99918400  -0.50732300   0.94063200
H    2.86980200   1.65904500  -2.17105500
H    2.91014800   3.26119400  -1.41713600
H    1.42962200   2.28944200  -1.27507600
H    2.87083800   1.70192800   2.16642400
H    1.43004100   2.31405700   1.25884300
H    2.91031200   3.28885500   1.38088600