16

C    3.86043200   4.39214400  -3.65785400
C    4.34283100   3.39790000  -2.67306200
N    5.56281000   3.31982000  -2.33754500
O    6.13828300   2.43300200  -1.59720500
C    6.88848500   3.00602600  -0.50610800
C    8.01807800   3.84819500  -1.09018000
O    7.43819300   4.86548500  -1.84849000
H    4.66939300   5.04236000  -4.00943300
H    3.06428300   4.99613100  -3.19705700
H    3.40825300   3.86017100  -4.50945600
H    3.64437600   2.69519700  -2.19005600
H    7.25987400   2.14460800   0.05933100
H    6.20703900   3.62093400   0.10088800
H    8.69580100   3.21052300  -1.67978000
H    8.57932700   4.25883300  -0.23218200
H    7.93853500   5.01698700  -2.65857800