13

O    1.43199900  -0.89256900  -0.66748800
C    2.37301400  -0.29213000  -0.14299600
C    2.85875800   0.98906200  -0.48725200
C    3.92367900   1.49414600   0.21207600
C    4.51533000   2.79263700  -0.03118400
C    4.83609000   3.64074500   1.17022500
O    5.81722500   2.95743600   0.47603600
H    2.84410600  -0.88629100   0.67971100
H    2.37397900   1.52627900  -1.30583100
H    4.38948100   0.90952900   1.01629500
H    4.28125300   3.30396300  -0.97213600
H    4.60713800   3.28211700   2.18121100
H    4.77148800   4.72362800   1.01009300