19

C    2.71442500  -0.83153400  -1.41008400
C    2.50646900  -0.15354500  -0.05990100
C    3.19591800   1.19388100  -0.00915900
O    3.20255400   1.75051900   1.29327200
C    2.80738000   3.10324400   1.48760700
C    4.70826200   1.15116500  -0.01684200
C    5.48296200   2.16188800  -0.50749400
H    2.19720200  -1.79970600  -1.42483700
H    3.77891500  -1.02756600  -1.61348200
H    2.31255600  -0.22639200  -2.23613500
H    2.89017500  -0.77767300   0.76224700
H    1.43543100   0.01031600   0.13376100
H    2.78685900   1.90546400  -0.74417900
H    3.21594400   3.42944800   2.44927300
H    1.70464700   3.11285400   1.51774600
H    3.15277200   3.74907500   0.66745100
H    5.16034700   0.28120800   0.47119000
H    5.05441800   3.10098300  -0.87187600
H    6.56727800   2.03951400  -0.58911700