13

C    0.84950500  -0.54182500  -0.31801000
C    2.28316700  -0.04034200   0.13785700
N    2.29566900   1.36351600   0.23186300
C    2.05552800   2.05658900   1.46622600
O    1.85943500   1.43203900   2.46397100
C    2.07033800   3.50281700   1.33348500
N    2.08327600   4.65191200   1.21440100
H    0.94687900  -1.63257400  -0.40298100
H    0.57132000  -0.11584400  -1.28980000
H    0.11389400  -0.28412600   0.45397500
H    2.99942800  -0.34436600  -0.64330000
H    2.50965300  -0.47334900   1.12167800
H    2.39767900   1.92629800  -0.62404600