12

O    0.78846100  -0.04297200   0.20203000
S    2.17334600  -0.00353900  -0.18154800
O    2.70198800   0.04536200  -1.52561000
C    3.30094900   1.14189200   0.97320000
C    4.23662300  -0.00381200   1.32939400
C    3.34852800  -1.16510600   0.90791100
H    2.57971100   1.45726800   1.74080100
H    3.65573600   1.94264000   0.30905600
H    5.16459300   0.03182700   0.74627900
H    4.48171300  -0.02905400   2.39990000
H    3.73518500  -1.91171600   0.19993600
H    2.64175400  -1.55279800   1.65558900