13

N    0.95145000   0.09342400  -0.00182200
C    2.27788600   0.04068300   0.00387800
C    3.18136400   1.09635800   0.00570500
C    4.51570900   0.64944700   0.01215700
N    5.60128800   1.42255800   0.01527600
C    4.60625900  -0.78458700   0.01521400
S    3.08137000  -1.53987500   0.01014400
H    0.47264000   0.98741400  -0.00592400
H    0.37627000  -0.74110800  -0.00219700
H    2.88040500   2.14311100   0.00270000
H    5.52404600   2.43238800   0.01290700
H    6.53361800   1.02809100   0.02005600
H    5.52218800  -1.37616700   0.02012500