18

N    1.24985900   0.08033700   0.57831500
C    2.57128400  -0.03697400   0.18325800
C    2.89754900  -1.32738200  -0.57869600
C    2.54184400  -1.06443600  -2.04250100
C    3.55447300  -0.39511000  -2.90508600
C    2.46623200   0.44116300  -2.26248300
C    2.81470700   1.14310700  -0.98881200
H    0.96525300   0.74667100   1.29672300
H    0.50111000  -0.37427200   0.05218800
H    3.23591700   0.22489000   1.01949100
H    2.34700700  -2.18006100  -0.15628600
H    3.96683900  -1.54946100  -0.44790000
H    1.79914800  -1.70798700  -2.51998900
H    4.57527400  -0.28210300  -2.52816700
H    3.48317500  -0.53699800  -3.98535800
H    1.67852000   0.86789700  -2.88692700
H    3.88497900   1.36111800  -0.84532100
H    2.23431100   2.05028300  -0.77948200