14

C    1.70840600  -0.50368400  -0.92312600
C    1.60554800   0.69180000  -0.03235200
O    0.71187300   0.97199700   0.69999500
C    2.81504200   1.71050800  -0.04744600
C    2.83290300   2.77908500   0.97961500
N    3.74629600   1.48477800  -0.87819300
O    4.60596300   2.31444600  -1.36170200
H    1.82743300  -0.17141900  -1.96690200
H    0.80108200  -1.11027600  -0.82354000
H    2.59275500  -1.09977700  -0.65067100
H    1.78957500   3.09761000   1.13445800
H    3.49432600   3.60598100   0.69215700
H    3.17493000   2.34972700   1.93708800
H    5.41908500   1.82011800  -1.59142800