13

C    1.02689000  -0.06907000  -0.00640500
C    2.48433400   0.08149400   0.00137500
C    3.34231200   1.19670600   0.00381500
C    4.64182900   0.72376000   0.01039600
C    4.51794700  -0.68715000   0.01173900
O    5.44272500  -1.57048900   0.01728800
O    3.24108400  -1.05746700   0.00637600
H    0.53913200   0.91192200  -0.00168100
H    0.70052800  -0.64748300   0.87390600
H    0.70919900  -0.63346800  -0.89911800
H    3.01300700   2.23426200   0.00099700
H    5.58171400   1.27190200   0.01399900
H    5.11084400  -2.48575900   0.01706300