19

C    1.07398500  -0.07832500   1.24797900
C    2.33901600   0.02469300   0.39980900
C    2.60994800   1.45542200   0.00119400
O    3.82503700   1.49322300  -0.81572600
C    4.27030500   2.62112200  -1.26137600
C    5.97557200   2.91402700  -0.81817300
C    5.47230600   2.61194500  -2.15706400
H    0.89294100  -1.12401700   1.52808200
H    0.18792800   0.27632600   0.70041600
H    1.15866100   0.50418400   2.17769100
H    2.24076200  -0.58481700  -0.51164400
H    3.20703400  -0.36087800   0.95670900
H    2.78890300   2.10860000   0.87027700
H    1.79979900   1.88074700  -0.61200900
H    3.67104200   3.52925800  -1.11195700
H    6.34923500   2.11006300  -0.17851000
H    6.09260100   3.94441800  -0.47052800
H    5.47192700   3.43260000  -2.88303400
H    5.70154400   1.61986700  -2.55900600