14

N    1.15253500   0.05289100   0.15402700
C    2.50042700  -0.19627300   0.00031100
C    2.87769900  -0.92920500  -1.18291300
C    3.23012100  -1.51941400  -2.17745300
C    3.31556400   1.28444600  -0.06955500
C    3.79815200   1.87329300   1.17611000
O    4.62011700   1.17568500   0.22288200
H    0.77441800   0.34699800   1.05243200
H    0.51653100   0.03190300  -0.64238500
H    2.94153600  -0.60816500   0.92557500
H    3.54298800  -2.05884500  -3.05748600
H    2.99824800   1.80616100  -0.98151700
H    3.64802100   1.34591000   2.12464700
H    3.98282000   2.94956200   1.23703600