15

C    1.32707400   0.07348700  -0.96319100
C    2.31537100  -0.03085100  -0.06291200
C    3.35415700   1.06405200   0.13981900
C    2.67250500   2.35603900   0.44893400
C    2.89568600   3.26643700  -0.57992600
C    3.72222500   2.66421600  -1.55805100
C    4.02920400   1.36727600  -1.15698600
H    0.59800800  -0.73130500  -1.08214200
H    1.20217500   0.94875100  -1.60875300
H    2.40417000  -0.92226000   0.56316700
H    4.07094200   0.77141000   0.92511300
H    2.06578200   2.52724800   1.34037500
H    2.50857700   4.28576700  -0.61925500
H    4.07449600   3.14513100  -2.47187300
H    4.64071400   0.65020400  -1.70831700