13

C    1.21614800   0.07318700  -0.42713700
C    2.58651000  -0.24763200   0.06157600
C    3.01982800  -1.46839500   0.50428200
C    3.53301900   0.89659900   0.26999000
N    4.03294900   1.66135200  -0.67255000
O    3.66800800   1.00061600   1.48993200
H    1.24648100   0.65005200  -1.36352200
H    0.69105400   0.69345000   0.31990300
H    0.63147200  -0.84443900  -0.57212900
H    2.40828500  -2.36040200   0.33895800
H    3.98663200  -1.59208300   0.99874500
H    3.86053700   1.46606400  -1.65343500
H    4.62035400   2.45718100  -0.43136200