12

C    0.86999000  -0.12246400  -0.05275200
N    2.32965200  -0.00650200  -0.05207200
S    3.05797000   1.46878300  -0.36663900
C    4.74291600   0.67700300  -0.15997700
O    5.75007000   1.29353100  -0.27862700
C    4.50184600  -0.73101000   0.14852700
C    3.17073600  -1.04591300   0.19424500
H    0.45178400   0.54730700   0.71195600
H    0.59997800  -1.16032500   0.17249300
H    0.48350200   0.15821700  -1.04275200
H    5.32901800  -1.42151600   0.31702500
H    2.73906500  -2.02609000   0.40420400