12

C    3.11466500  -1.22479300   0.53894800
O    2.45995000   0.02935400   0.25698400
C    3.09592300   1.12669400   0.11736800
N    2.35629000   2.23101300  -0.14537700
S    3.30157400   3.50381400  -0.28891800
C    4.81485300   2.64460200  -0.00145500
C    4.54036500   1.34151900   0.20694700
H    2.31059300  -1.96294900   0.59966900
H    3.64289300  -1.15086100   1.49897000
H    3.80056100  -1.46921300  -0.28320800
H    5.78170800   3.15143000  -0.00632900
H    5.27867900   0.56674700   0.41069900