12

C    0.92729600   0.01721900   0.01078300
C    2.40550500  -0.06125100  -0.00352700
C    3.29884300   1.03738300  -0.23914100
O    4.55948500   0.64068200  -0.18593100
C    4.54956000  -0.68223200   0.07629600
C    3.24359500  -1.15526500   0.19626500
H    0.58927500   0.73233700   0.77836000
H    0.47834700  -0.96151000   0.21362200
H    0.55420300   0.38866900  -0.95753900
H    3.11553300   2.09367400  -0.44475100
H    5.52327700  -1.16719400   0.15278300
H    2.95624800  -2.18421200   0.40582900