13

C    0.86875500  -0.04161700   0.08736600
N    2.29144700   0.00549500   0.23197500
C    2.99878200   1.05899100   0.12614200
N    2.63850900   2.37508900  -0.13977400
C    3.65792900   3.25401400  -0.18200000
C    4.88597600   2.66804200   0.05106500
S    4.75073800   0.99763000   0.32492000
H    0.63273900  -0.76528300  -0.70910200
H    0.36879300   0.91711000  -0.13204200
H    0.44795800  -0.46749300   1.01224000
H    1.66863400   2.64512200  -0.29036600
H    3.47446100   4.30955200  -0.38392900
H    5.84697600   3.18242000   0.06544400