19

C    0.98315300   0.08960900   0.12813100
C    2.45103800   0.04602600   0.04685500
C    3.25442700  -1.12049400  -0.11403200
C    2.76950600  -2.50418800  -0.22990800
C    4.68462500  -0.73739200  -0.16505500
C    4.70712400   0.78517000  -0.36208200
C    3.31954500   1.24471000   0.10799000
H    0.53671600  -0.84604400   0.48826700
H    0.59385400   0.26647400  -0.89438700
H    0.64034500   0.93834500   0.73663200
H    3.50429300  -3.22078900   0.16344100
H    2.66158100  -2.73446900  -1.30865500
H    1.78900400  -2.66491000   0.23616500
H    5.12738000  -1.03886900   0.80940600
H    5.24744900  -1.32300700  -0.91131900
H    4.83835500   1.02236900  -1.42792100
H    5.52473100   1.27338000   0.18117300
H    2.88972500   2.09992900  -0.44021400
H    3.32665800   1.57622300   1.16934600