14

C    2.74347900  -0.86522700  -0.68503700
C    2.19621200   0.33211500  -0.35268300
C    2.92262300   1.56490900  -0.16003800
C    2.15726500   2.69376000   0.18049100
C    4.36052800   1.64721600  -0.30644300
C    5.09883400   2.76979700  -0.14092200
H    2.10491000  -1.74340700  -0.80837200
H    3.81387700  -1.01598600  -0.84305900
H    1.11234800   0.38207500  -0.21612000
H    1.07229800   2.61308500   0.28735500
H    2.59991800   3.67706300   0.34939000
H    4.89028900   0.73028900  -0.57135200
H    4.67586000   3.74169900   0.12401500
H    6.18298100   2.73592500  -0.27266300