15

C    0.93481300  -0.11348900   0.30460000
C    2.25839500   0.02459300  -0.00471000
C    2.98971600   1.27903600  -0.36209700
C    4.42019200   1.26845100   0.17996400
C    5.04723500  -0.05707000  -0.06804800
C    4.27510100  -1.17367000  -0.19141600
O    2.94768800  -1.12220500  -0.04547200
H    0.28997400   0.76446900   0.36657200
H    0.51348100  -1.10389000   0.49121500
H    2.42311800   2.15311900  -0.01817000
H    3.01564100   1.32886900  -1.46716600
H    4.45769600   1.46760000   1.26883700
H    5.01348600   2.06968900  -0.28358900
H    6.13328700  -0.17590700  -0.09135800
H    4.63890900  -2.19274500  -0.32417300