9

C    0.98123400   0.01296500   0.00069900
C    2.41600800   0.02824000   0.00063100
C    3.63987800   0.03505400   0.00012400
C    5.01813200   0.00749100  -0.00006800
O    5.75330900   1.00461700  -0.00322100
H    0.57160600   1.03289400   0.01252800
H    0.62580100  -0.54644100   0.88247500
H    0.62721600  -0.52358800  -0.89593100
H    5.59790600  -0.95201200   0.00275300