16

C    2.32720900  -0.52581300  -1.48385100
C    2.46191100  -0.00923400  -0.05609000
C    3.24284500   1.30212500   0.01559500
C    2.56700300   2.57115300  -0.50467500
O    2.65589500   3.20874400   0.75918500
C    3.26397900   2.06602100   1.33780500
H    1.76899900  -1.47119800  -1.49564700
H    3.31124000  -0.71375300  -1.93795300
H    1.78293600   0.18220200  -2.12866500
H    2.98686600  -0.74877000   0.56826400
H    1.46713300   0.13553100   0.39856000
H    4.25316900   1.17240600  -0.40570400
H    1.49169100   2.52873500  -0.79390000
H    3.04973600   3.22044700  -1.26660000
H    4.22437200   2.37543700   1.80549300
H    2.62535800   1.71900100   2.18148500