18

C    0.79015400  -0.09075700   0.15355400
C    2.28965900  -0.01464400   0.01804400
C    2.77994300  -0.13484900  -1.55566700
N    2.21631600   0.83792300  -2.35353900
C    3.11984700   1.06707900   0.72379300
O    4.11285500   0.11541600   1.06420100
C    3.22855800  -0.95550100   0.80165300
H    0.51591800  -0.13057800   1.21775100
H    0.38622900  -0.99571200  -0.32462000
H    0.29557200   0.79011700  -0.28053400
H    2.47576200  -1.13771100  -1.88312400
H    3.87468300  -0.02507000  -1.48064700
H    1.35888100   0.67104700  -2.87801900
H    2.58062200   1.78949700  -2.37208600
H    2.58442600   1.45309500   1.61225900
H    3.52822200   1.92439700   0.16564700
H    3.71584300  -1.81182200   0.31179000
H    2.70976600  -1.31039800   1.71363400