18

C    1.51964200   1.38708700   1.89363900
O    2.78098400   1.64453200   1.31802000
C    2.86597600   1.36556900  -0.04037000
C    4.32039100   1.57437100  -0.46764300
C    4.79168400   2.91896400   0.04650900
C    6.00477100   3.58103700  -0.73083100
N    4.70421100   4.09943900  -0.71118100
H    1.58328500   1.65198400   2.95540700
H    1.25187700   0.32002800   1.80622600
H    0.72914100   1.99312800   1.41652700
H    2.19322900   2.01795000  -0.63423100
H    2.59257200   0.31695300  -0.26887200
H    4.42808200   1.50039400  -1.55890500
H    4.95615200   0.81012300   0.00259300
H    4.60436100   3.05652000   1.12003500
H    6.28264000   2.95174600  -1.58508300
H    6.80093300   4.18379400  -0.28177700
H    4.44898300   5.02030700  -0.33787500