14

N    0.67984600   0.95449800  -0.32201300
C    1.84653800   0.41264900  -0.29970200
C    2.87804600   0.67518500   0.75137000
O    3.90108300  -0.24538300   0.63738400
C    3.52911800  -1.51596300   0.96966900
C    4.23773500  -2.57969800   0.44961200
C    4.83750500  -3.54308000  -0.00684500
H    0.03462400   0.79908000  -1.09787700
H    0.34734800   1.56054500   0.43046800
H    2.12877800  -0.23436000  -1.14071000
H    2.41542700   0.69724300   1.76030800
H    3.29790400   1.68137000   0.56394100
H    2.81138700  -1.63222100   1.79075500
H    5.37575700  -4.38921400  -0.39888200