14

C    1.04076400  -0.11633800   0.16180000
C    2.50987700   0.12210900  -0.06077800
C    3.17078000   1.26494800   0.70135000
C    4.32777900   0.65988300   1.44949800
O    5.18813500   1.09278100   2.12953000
N    4.21029700  -0.77503100   1.19547400
O    3.24638700  -1.11392900   0.42999700
H    0.70667300  -1.02601000  -0.35403500
H    0.49181600   0.73629800  -0.26437000
H    0.80152900  -0.18665800   1.23212900
H    2.76636100   0.12030100  -1.13075700
H    2.49281800   1.72848300   1.43608600
H    3.54381300   2.06375100   0.04424000
H    4.79525800  -1.53456900   1.56797200