15

C    0.92222800   0.00552600   0.60456300
C    2.32548100  -0.04123200  -0.00174900
C    2.94486300   1.33184400   0.01865300
O    4.29292800   1.22163700  -0.63375600
N    5.08318600   2.19321200  -0.47500200
C    6.22202000   2.29860900   0.05494000
H    0.48009000  -0.99875800   0.58582600
H    0.25693000   0.67302500   0.03751000
H    0.94042600   0.34131000   1.65187300
H    2.28129100  -0.39847900  -1.04175400
H    2.96261800  -0.73865800   0.56308500
H    3.12833700   1.73471000   1.02657600
H    2.40088900   2.06706800  -0.59306100
H    6.75590600   3.24510800  -0.08001600
H    6.64453000   1.47015300   0.64330000