14

C    1.03954400   0.08499200  -0.00750100
C    2.50601700  -0.03108900  -0.08727200
C    3.32811100  -1.17933200  -0.01693700
C    4.73775600  -0.76444900  -0.14683600
C    4.63713100   0.75468700  -0.30119100
O    3.21198100   1.04006400  -0.24353400
H    0.56665400  -0.89592100   0.10842900
H    0.66140900   0.57933900  -0.91634200
H    0.77101300   0.73199100   0.84296900
H    2.96117400  -2.19838300   0.11217200
H    5.32691200  -1.07798600   0.73499100
H    5.22037500  -1.26222700  -1.00842100
H    4.99159100   1.14389400  -1.26463600
H    5.10110400   1.33156000   0.50953900