16

C    1.20691800  -0.25774800   0.28977300
N    2.40531700  -0.01530400  -0.43811500
C    3.11190400  -0.49283200  -1.57510500
C    3.03271700   0.97953200  -1.23776100
C    4.26550100   1.70121700  -0.69021800
C    5.12620300   2.12536900  -1.78750100
C    5.83063100   2.46470200  -2.70693200
H    1.09981900   0.48946400   1.08707800
H    1.21202500  -1.28308000   0.68289800
H    0.35248200  -0.15255500  -0.41013000
H    2.50058000  -0.94872900  -2.36369200
H    4.06805000  -0.99480500  -1.37066400
H    2.32896700   1.61776900  -1.79022400
H    4.81377000   1.03676200  -0.00284600
H    3.92489600   2.56992700  -0.10467400
H    6.46692000   2.77840600  -3.51657800