16

N    1.42653000  -0.48478700   0.36607000
C    2.66626200  -0.42897700  -0.09451400
C    3.00062800  -0.37519900  -1.53670600
C    3.15506700   1.09453600  -1.38454000
O    2.18120400   1.94384700  -1.64192000
C    4.45106800   1.72933400  -0.98802100
O    5.24120300   0.76646600  -0.36393000
H    1.23710000  -0.39404400   1.35911600
H    0.62978100  -0.67191700  -0.23411000
H    3.48758500  -0.38827500   0.62548800
H    2.19230100  -0.68571400  -2.21512200
H    3.94681600  -0.87750600  -1.77130300
H    1.46526400   1.56190700  -2.16637200
H    4.23084800   2.60671700  -0.35110100
H    4.90989200   2.11848900  -1.92153700
H    6.13227100   1.10244800  -0.22689300