13

N    1.14640000  -0.23341900   0.44968900
N    2.38545700  -0.14780600   0.17677900
C    2.96914500   1.05902000   0.06454200
C    2.28867800   2.40608200   0.07638700
O    1.03730000   2.32328300   0.69662700
C    4.34880300   1.02138200  -0.15929700
C    5.55369400   1.01762100  -0.34864800
H    0.75809000  -1.17806400   0.48075900
H    0.58177500   0.61394800   0.65089800
H    2.21723800   2.73157100  -0.98211300
H    2.96358100   3.11804000   0.58410900
H    0.59551100   3.17961700   0.70060700
H    6.62012700   1.00209000  -0.51712000