10

C    0.88073600   0.00041300   0.00143600
C    2.23241000   0.00004000  -0.00020900
C    3.14783200   1.15339300  -0.00209200
N    4.33775800   0.63040600  -0.00318200
N    4.33740600  -0.63147300  -0.00234400
C    3.14720200  -1.15381800  -0.00055500
H    0.31386800   0.93707600   0.00150100
H    0.31334500  -0.93593200   0.00274800
H    2.94517300   2.22436400  -0.00255800
H    2.94396200  -2.22467800   0.00040500