14

N    2.31758600  -0.64119800  -1.16943800
C    2.40418000  -0.03738300   0.09727400
C    3.11217800   1.34274700  -0.09995400
C    2.32069400   2.58998400  -0.50379700
O    2.59302100   3.17515000   0.79283500
C    3.22725100   2.09574300   1.26727200
O    3.66641500   1.83152400   2.32389000
H    1.48745600  -0.54767400  -1.75931600
H    3.12690500  -1.10315100  -1.59178800
H    3.04554000  -0.62704900   0.77313700
H    1.40564300   0.10087400   0.53312400
H    4.09396800   1.23487100  -0.58487800
H    1.23886000   2.45984800  -0.64699900
H    2.75010000   3.20005900  -1.30756000