20

C    1.05500700  -0.10513200   0.11813300
C    2.60221500  -0.26752700   0.08023200
C    3.14877400   1.09305700  -0.10914700
C    5.06464400   1.07051500  -0.02016000
C    5.52338500   0.12712900  -1.07144600
C    5.43246000   2.50712800  -0.13222500
H    0.62545900  -1.10989000   0.23941500
H    0.66796800   0.32575900  -0.81495600
H    0.72999900   0.51514000   0.96411500
H    2.87283300  -0.93815700  -0.74579100
H    2.93231600  -0.71195000   1.03101400
H    2.97757500   1.80706100   0.70594400
H    3.06708300   1.53785500  -1.11007700
H    5.07032500   0.66759200   1.00422800
H    5.29576400   0.47555400  -2.08964100
H    5.17223900  -0.90060500  -0.92331000
H    6.62925100   0.10160100  -0.98825200
H    5.28505100   2.91226300  -1.14314400
H    6.52080600   2.55092800   0.07929800
H    4.94568700   3.14509200   0.61645900