18

N    1.12680800   0.01807600  -0.14240800
C    2.50605700   0.02071200  -0.06589600
C    3.05615200  -1.13645300   0.98529100
C    3.83678900  -0.21386900   1.91353300
C    4.55324500   0.74037300   0.93795900
C    3.11376200   1.24643200   0.68291000
C    2.83965400   0.93574000   2.17083600
H    0.62360600  -0.35987000  -0.94668600
H    0.56120900   0.36802900   0.63419600
H    2.93118600  -0.16905600  -1.06025100
H    3.65079500  -1.84533500   0.39307900
H    2.22426700  -1.66655500   1.46853100
H    4.35963000  -0.73147000   2.72962800
H    5.12401500   0.31499500   0.09916500
H    5.15299000   1.50554500   1.44758900
H    2.89198000   2.21246600   0.21064700
H    3.24287900   1.71978200   2.82420600
H    1.82037400   0.68294600   2.50900700