10

C    0.99276200  -0.06590100  -0.10279800
C    2.20344300   0.03808400  -0.04840200
C    3.60080900   0.13151800   0.08016400
C    4.42262600  -0.75758200  -1.12729600
N    4.44264200   0.61335500  -0.96197100
H   -0.08402800  -0.13952600  -0.15263700
H    4.01513200   0.15276700   1.09629300
H    3.63941900  -1.19261300  -1.75673400
H    5.32227400  -1.35107500  -0.92677300
H    5.32930700   1.02159300  -0.65145500