14

C    0.93617800   0.02378600  -0.08113700
C    2.47108200  -0.04797300   0.02067400
C    3.11454600  -1.24499200  -0.57581900
C    4.10830200  -0.84768000  -1.48800100
N    4.16414500   0.47341500  -1.55393000
C    3.17969000   1.10378300  -0.67934700
O    3.03530800   2.27487100  -0.61519100
H    0.59583100   0.97807300   0.34141100
H    0.48143500  -0.79512500   0.49072600
H    0.60289900  -0.03944000  -1.12578500
H    2.74800500   0.00261800   1.09409800
H    2.86585000  -2.28288700  -0.34884400
H    4.76641000  -1.48611600  -2.08133400
H    4.80021400   1.01651800  -2.14215600