16

C    1.01452500  -0.10511900   0.40769100
C    2.46864800   0.00126000   0.00223100
N    3.16566300   1.20894500   0.40526200
C    2.48954300   2.29771400   1.05834700
C    4.57121200   1.33150100   0.11174700
H    0.62464000  -1.05760500   0.02509700
H    0.39900300   0.69650100  -0.02306600
H    0.88716900  -0.11462000   1.49921900
H    2.58834800  -0.05883900  -1.09825000
H    3.06578400  -0.84219100   0.39779000
H    1.71168400   2.70052300   0.38660200
H    3.20294100   3.08738800   1.31732400
H    1.98065900   1.93083700   1.96387000
H    4.93239400   0.44913900  -0.42794700
H    5.12753900   1.44872600   1.05775900
H    4.73941100   2.24095200  -0.48908800