17

C    1.06856000   0.08281300  -0.18626700
C    2.40890700  -0.03266200   0.10396200
C    3.17420500  -1.31046200   0.11840300
C    4.09308000  -1.33662700  -1.12754900
C    4.78442800   0.02734500  -1.24537600
O    3.81225000   1.05460200  -1.11017100
C    3.28235400   1.20065700   0.18798600
H    0.61591900   1.05109600  -0.41876400
H    0.41292200  -0.79290800  -0.15228400
H    2.49856800  -2.17708600   0.10213700
H    3.79292000  -1.35411200   1.03031800
H    4.84255600  -2.13652500  -1.05145300
H    3.49089000  -1.52044400  -2.02944800
H    5.55445100   0.15462200  -0.46562600
H    5.22708700   0.16291300  -2.24045300
H    4.05112000   1.14543100   0.97365900
H    2.72892400   2.14456800   0.23548000