16

C    1.60387600  -0.47087100  -1.21192100
N    2.70695200  -0.23838300  -0.30031300
N    3.31215300   0.90938800  -0.27805500
C    4.55617500   1.14452800  -0.01340000
C    5.59442900   0.07160600  -0.02101700
C    4.94741700   2.54890900   0.27551400
H    1.53612600  -1.54820900  -1.40810600
H    1.79001100   0.07908100  -2.14197700
H    0.66115300  -0.12365000  -0.75957700
H    2.82173300  -0.86170400   0.50541400
H    5.84643000  -0.16805100   1.02721400
H    6.51761200   0.44195800  -0.48784500
H    5.26250900  -0.84111000  -0.53076900
H    4.07581400   3.20409300   0.38236400
H    5.58044000   2.91538700  -0.54970300
H    5.56555700   2.58203500   1.18543000