11

C    0.26964200  -1.35943900   0.05275200
O   -1.04776300  -0.79867500   0.05786200
N   -1.30110100   0.47228300   0.02897100
C   -0.28494400   1.32901800  -0.00765900
C    1.08017900   0.95316600  -0.01759600
C    1.36332000  -0.38405300   0.01236500
H    0.29970500  -2.05424200  -0.81143100
H    0.32520900  -2.01017000   0.94933900
H   -0.60428800   2.37460600  -0.02985900
H    1.86170800   1.71444900  -0.04813500
H    2.38974200  -0.76391300   0.00733200