13

C    0.94547500   0.11041100  -0.00478300
C    2.42363500   0.04545600   0.00242900
N    3.22663000   1.05289000   0.00588900
C    4.53349300   0.65894200   0.00858500
N    5.49205700   1.56685200   0.01289100
C    4.73983700  -0.75691800   0.00777600
S    3.25658300  -1.55133100   0.00257100
H    0.62917000   1.15964100   0.01997300
H    0.53124200  -0.42232500   0.86525600
H    0.54571100  -0.37323900  -0.91004300
H    6.47627700   1.31791000   0.01438100
H    5.23634700   2.55269000   0.01378900
H    5.69587700  -1.28172900   0.00992700