14

C    1.01156300  -0.15725100  -0.44587500
N    2.37556800   0.00213100   0.06366400
C    3.09982100  -1.23896500   0.39510800
C    2.98370600   1.14189500   0.24879100
O    4.07732600   1.45698800   0.64571200
C    2.16951400   2.54517600  -0.14064900
O    2.06850100   2.82290000  -1.26942400
H    0.47458900   0.79723900  -0.48122500
H    0.46650300  -0.83514800   0.22368800
H    1.04473100  -0.58802100  -1.45607900
H    2.62451700  -1.71676600   1.26277700
H    4.14646100  -1.00917600   0.62336200
H    3.04931400  -1.91068500  -0.47216400
H    1.86920400   3.12493100   0.76138500