16

C    1.00297100  -0.29858700   0.06751800
C    2.43071500  -0.26168800  -0.32779200
N    2.84463300  -0.08387100  -1.65179700
C    3.26688800   1.04609800  -0.94526400
C    4.64121100   1.18029400  -0.34564300
C    4.52901000   1.69017600   1.08254200
O    3.47485600   1.70699100   1.65665200
H    0.91557700   0.15768900   1.06574300
H    0.66537500  -1.34414300   0.15541500
H    0.35341400   0.23519200  -0.63854800
H    3.15600000  -0.74903700   0.33405500
H    2.12972500   0.03137800  -2.37683600
H    2.73857700   1.97971500  -1.17507400
H    5.22565200   1.88572900  -0.96214400
H    5.19419100   0.22615800  -0.35882400
H    5.47426500   2.02643100   1.56254700