13

C    1.10181100  -0.01632900   0.24018300
N    2.48408000   0.01594400  -0.06919000
C    3.48340200   1.06389600  -0.17633400
C    4.55579000   0.01139400  -0.53885500
C    3.46627100  -1.03535700  -0.41118400
O    3.26136800  -2.19108700  -0.49622300
H    0.74437500  -1.05314500   0.20294000
H    0.55092800   0.62073500  -0.47765000
H    0.94045800   0.42464600   1.24224200
H    3.60707300   1.60448600   0.77935300
H    3.21457500   1.80157100  -0.95378800
H    4.97787800   0.08125600  -1.55132800
H    5.37138800  -0.11642000   0.18682400