16

C    1.11631700  -0.15107700   0.06240700
C    2.57528000  -0.00210900  -0.19599300
N    3.14106400  -0.37092700  -1.43198900
C    3.26101000   1.00731100  -1.23900900
C    4.58143900   1.58677800  -0.76787000
C    5.77948500   0.73810200  -0.78630700
O    5.48129000   1.65099700  -1.82395900
H    0.81482100   0.55234000   0.85247000
H    0.90351500  -1.16588100   0.43549100
H    0.51294300   0.03487200  -0.83629700
H    3.25584600  -0.09106500   0.66178200
H    2.58526300  -0.76594700  -2.19690100
H    2.67875600   1.65374900  -1.90772000
H    4.49174500   2.47159600  -0.12750500
H    5.68794400  -0.32301800  -1.05286900
H    6.64042100   1.00551600  -0.16524500