15

C    0.98297100   0.05333700   0.32282400
C    2.41982000   0.01288600  -0.12144300
C    2.88931000  -1.29074700  -0.75330400
N    4.16430100  -1.17511700  -1.39996600
C    4.57011400  -0.01563500  -1.76942500
N    3.75273100   1.08709800  -1.70210700
O    2.58270700   1.07701200  -1.13205900
H    0.72523900   1.04348700   0.72020400
H    0.84247900  -0.68272600   1.12678800
H    0.30280800  -0.19559400  -0.50337700
H    3.10936200   0.29950700   0.69179400
H    2.17776800  -1.68308100  -1.50506500
H    2.95266900  -2.07102900   0.02260100
H    5.54451900   0.15795300  -2.23799800
H    3.91324500   1.93489100  -2.25632400