12

O    1.03024200   0.01196000   0.01591400
C    2.36273500   0.11532200   0.01397000
C    2.89377100   1.52441600  -0.00093200
C    4.35379800   1.49238800  -0.00036600
C    5.56182100   1.42437900   0.00025500
C    6.94402900   1.35138500   0.00102000
N    8.09988700   1.27751300   0.00175100
H    0.69255100  -0.90993900   0.02617300
H    2.80870000  -0.56566300  -0.79374800
H    2.80952200  -0.54862800   0.83532800
H    2.50745800   2.06943300   0.87906000
H    2.50750100   2.05077000  -0.89222500