18

C    0.93213200  -1.10243500   0.27750900
C    2.39561400  -0.64000400   0.06733400
C    3.36969600  -1.78246400  -0.15145900
N    2.40439600   0.33713500  -0.99273900
C    3.01658300   0.18391300  -2.28339200
C    2.75574700   1.30167200  -3.17220300
C    2.54185500   2.22805100  -3.91450000
H    0.25461800  -0.25718000   0.46188100
H    0.91102000  -1.75685800   1.15899700
H    0.57953600  -1.66940000  -0.59549000
H    2.67669100  -0.06500800   0.97305800
H    3.09386300  -2.39931900  -1.01962700
H    3.34669900  -2.43382100   0.73183300
H    4.40345400  -1.42856900  -0.27206500
H    1.86678400   1.19791300  -0.84050900
H    2.66077900  -0.77580100  -2.71391100
H    4.10445000   0.02770000  -2.12839300
H    2.35441600   3.05309900  -4.58203700