14

C    1.05316500  -0.07564500   0.34229600
C    2.33992000   0.04302400  -0.03424400
C    3.16519500   1.28864800  -0.20421700
C    4.54517900   0.78833400  -0.64576100
N    4.45107500  -0.61900500  -0.70419600
C    3.14681600  -1.15300600  -0.34816600
O    2.92913000  -2.32350900  -0.35508700
H    0.59491100  -1.06597900   0.41831500
H    0.43961900   0.79698800   0.57874700
H    3.23762700   1.86254900   0.73254500
H    2.73410100   1.96538100  -0.95810500
H    4.88558400   1.17062600  -1.63405200
H    5.38149500   1.06794000   0.03342100
H    5.22012500  -1.24483400  -0.97204400