18

C    0.85761800  -0.01352600  -0.41838300
C    2.26877700  -0.04219000   0.12469700
N    3.26105200   0.35365100  -0.85749000
C    2.70939400  -1.31635700   0.86131800
C    3.80001000  -0.87032100   1.85799300
C    3.60292700   0.60326700   1.97567500
C    2.72419100   1.08119600   1.03691500
H    0.14352600  -0.13376800   0.40723400
H    0.70719400  -0.83412300  -1.13390300
H    0.63601200   0.93888600  -0.92259200
H    4.21800200   0.00706700  -0.82209300
H    3.06870900   1.10617400  -1.51773200
H    3.03253700  -2.10105100   0.16308900
H    1.83894000  -1.70728800   1.40625200
H    4.83048600  -1.08739200   1.51844600
H    3.72031600  -1.36553200   2.83842700
H    4.07678300   1.22357100   2.74059400
H    2.42471000   2.12183800   0.89603900