19

C    2.20756300  -1.14331000  -1.25799600
C    3.31989400  -0.60912800  -0.35747700
C    3.44488100   0.86048500  -0.35174600
C    4.63741700   1.55618400  -0.00515000
C    5.89406400   0.86332200   0.37211600
O    4.70736300   2.84008900  -0.00035700
C    3.62661000   3.72713200  -0.34667700
H    2.13332700  -2.23329300  -1.15616900
H    2.40993700  -0.91560800  -2.31396400
H    1.23196800  -0.71312300  -0.98919200
H    4.28885000  -1.08593600  -0.57898500
H    3.10816100  -0.89569200   0.69840200
H    2.55247900   1.44791400  -0.59121200
H    6.29656600   0.32757800  -0.50375600
H    5.70264000   0.11140400   1.15222900
H    6.63750500   1.58800100   0.72222900
H    4.04124500   4.73421300  -0.24904000
H    2.79442900   3.59122400   0.35673400
H    3.31247500   3.54532800  -1.38292700