18

C    0.87570100   0.05464100   0.20969900
C    2.20511300   0.09136100   0.22928400
C    3.01410700   1.35338400   0.06010000
C    2.33108900   2.72800300   0.04295400
C    3.45363700   3.68931700   0.44933800
C    4.25042700   2.87870300   1.47449700
N    4.01942300   1.51879900   1.08472100
H    0.34955300  -0.89814900   0.30031700
H    0.25738500   0.94784500   0.08944700
H    2.78120400  -0.83657100   0.31563500
H    3.61292800   1.24160300  -0.87962300
H    1.51929800   2.74004400   0.78689100
H    1.89823100   2.95387000  -0.93876900
H    4.09514600   3.93322000  -0.41080100
H    3.08460800   4.63250600   0.86903700
H    5.33309400   3.08055200   1.54277100
H    3.85524300   2.98915700   2.50806300
H    4.50883200   0.72553200   1.51038500