11

O    1.05833600   0.05324600   0.22498200
C    2.25692800  -0.01019000   0.08445700
N    2.97640200   1.22529700  -0.03638500
C    4.28042900   1.28458400  -0.19323500
C    5.00292800   0.07396500  -0.24479100
C    4.27817600  -1.13835700  -0.12418200
N    2.97593000  -1.17557000   0.03182900
H    2.40320500   2.07414000   0.00764100
H    4.75415200   2.26701400  -0.27751000
H    6.08657100   0.08569800  -0.37407500
H    4.80461800  -2.09867800  -0.15959100