19

C    2.85098400  -1.21464400  -0.35294300
C    2.36479000   0.18608200   0.06870000
C    3.47717800   1.16238500   0.01057600
C    3.52088500   2.35429200  -0.88421600
C    3.10010600   3.13477500   0.30115900
C    1.68808200   3.37067100   0.67911800
O    3.97383800   3.71117200   1.07171400
H    2.01518000  -1.92314200  -0.28236200
H    3.65685200  -1.57303000   0.30302900
H    3.21591300  -1.21713700  -1.38935200
H    1.98670200   0.12654700   1.10511000
H    1.52965400   0.50492600  -0.57293800
H    4.36524500   0.96529100   0.62272400
H    2.76881700   2.33823400  -1.68266000
H    4.52004500   2.61378600  -1.26218800
H    0.99788000   2.70000200   0.15750400
H    1.44574100   4.40993600   0.39461000
H    1.55829100   3.29367000   1.76783800
H    4.88351700   3.67477400   0.73718700