21

C    1.11207800  -0.02367500   0.62704000
C    2.51680500   0.00811000   0.05424700
C    3.37125100   1.20014600   0.57964600
C    4.26716700  -0.00154900   1.05903700
C    4.28868100  -0.04461100   2.59056600
C    5.61549100   0.03447900   0.33558600
C    3.39778400  -1.19276400   0.51129300
H    0.58901700  -0.91902000   0.26242000
H    0.56917000   0.87926800   0.31380800
H    1.11769400  -0.05507800   1.72718300
H    2.60942400   0.04071700  -1.04666500
H    2.89783900   1.78678000   1.37434300
H    3.82909400   1.84319800  -0.17824600
H    3.28015800  -0.06838300   3.02690300
H    4.80602000   0.85100100   2.96320500
H    4.82614300  -0.94819800   2.91201400
H    5.50107200   0.06431400  -0.75724200
H    6.18717000  -0.86658800   0.60042000
H    6.16702200   0.93152800   0.65174000
H    3.86890100  -1.78128400  -0.28194800
H    2.93769200  -1.83415900   1.27072400