13

C    0.92956200  -0.00324200  -0.08646000
C    2.46738600  -0.00587900   0.01509800
C    3.16791900  -1.15772400  -0.59376800
N    4.14293200  -0.81168900  -1.44220600
N    4.16253900   0.47800300  -1.51113800
C    3.15659900   1.15180400  -0.68029700
O    3.02144200   2.32438800  -0.65714200
H    0.54960000   0.93001700   0.34878800
H    0.51478600  -0.84797000   0.47807900
H    0.59931000  -0.06929300  -1.13147300
H    2.74806600   0.03956600   1.08912500
H    2.96649700  -2.21977100  -0.42839200
H    4.85932800   0.94939100  -2.10258000