15

C    1.74189200   0.14165600   1.29197600
O    1.75229000   1.46371400   0.71599500
C    2.79788400   1.94851300   0.14046200
C    2.69397900   3.28288300  -0.43034200
C    1.51955100   3.92788900  -0.52281500
N    3.91526200   1.21160700   0.16766400
N    4.89920400   1.49275600  -0.61574800
H    0.74622500   0.03020300   1.72935500
H    2.52162900   0.06967600   2.06031800
H    1.90889500  -0.60576500   0.50632600
H    3.61641700   3.76897000  -0.75626200
H    0.58691100   3.47101200  -0.18266000
H    1.47037400   4.93386400  -0.94499100
H    5.76809200   0.98284100  -0.46097900
H    4.82315000   2.10018100  -1.43646000