17

C    1.15067700  -0.24593000   0.81251600
C    2.46373100  -0.12590600   0.02601900
C    2.41556500  -0.75537800  -1.39050500
C    1.73887400   0.23337400  -2.33050700
O    1.94218100   0.12695300  -3.64265900
C    2.84943400   1.26725300  -0.20623000
C    3.12079500   2.41907400  -0.52697100
H    1.25017200   0.21296500   1.80478700
H    0.90444000  -1.30742600   0.95085600
H    0.31302300   0.24312000   0.29489800
H    3.27344700  -0.61404700   0.59303200
H    1.87562800  -1.71524500  -1.39344000
H    3.44320200  -0.94495900  -1.74161300
H    2.23525200   1.27969700  -1.90357500
H    0.67455000   0.45356800  -2.14287100
H    2.79658300  -0.28154700  -3.85768700
H    3.37113200   3.44268100  -0.76562300