19

C    2.34866800  -0.45610100  -1.43669300
C    2.47542600  -0.08655100   0.01535700
O    3.19413700  -0.88848900   0.80055100
C    3.32837000   1.45940300   0.07208500
C    2.56269600   2.59836300  -0.57522500
C    3.20551800   3.40491300   0.59688500
C    3.40931900   2.10315600   1.43302500
H    1.78579000   0.30525900  -1.98979900
H    1.79130600  -1.40578600  -1.49390200
H    3.32908700  -0.59672900  -1.91719200
H    1.54583900   0.19450100   0.52930400
H    3.86667700  -1.38425600   0.30598300
H    4.30158500   1.23956200  -0.39196700
H    1.47270900   2.54215700  -0.44863100
H    2.81814100   2.84472400  -1.61246700
H    4.15784800   3.86294700   0.30447500
H    2.53158000   4.14106300   1.05713400
H    4.33432500   1.95891500   2.00244300
H    2.53616000   1.91834000   2.07346400