15

C    0.98808900   0.08613800   0.03176100
C    2.47504300   0.09023800   0.08962400
O    3.03499900   0.93100400   0.96114000
C    4.41446200   0.62547400   1.14824700
C    4.41354000  -0.88467000   1.43386000
C    3.21328100  -1.40104000   0.68043100
O    2.74724700  -2.43958800   0.44980800
H    0.62894600  -0.75180100  -0.57923500
H    0.65905600   1.02426300  -0.44363900
H    0.55223500   0.03869700   1.03870200
H    2.99989600   0.02442400  -0.89111700
H    4.98419400   0.86790100   0.23675200
H    4.78201500   1.22658600   1.98589800
H    5.31604100  -1.43403000   1.12640200
H    4.21694700  -1.11754600   2.49549200