14

C    0.93552900  -0.02538300   0.01328100
C    2.46261100   0.09168900  -0.15039900
C    3.08866600  -0.78929000  -1.24779200
C    2.95959500   1.41620300  -0.10408300
C    3.42835000   2.56898900  -0.00170900
C    3.93067900   3.81819400   0.09937700
N    4.36765700   4.90423200   0.18764700
H    0.55734400   0.58681400   0.84201800
H    0.68458500  -1.07655900   0.20339600
H    0.44594400   0.28811000  -0.92014000
H    2.91863300  -0.24734400   0.83370100
H    2.67283900  -0.50190300  -2.22438900
H    2.82312600  -1.83530300  -1.04921100
H    4.18201900  -0.69926200  -1.28086500