8

C    0.96402800   0.00000000   0.00000000
C    2.19378500   0.00000000   0.00000000
C    3.53028600   0.00000000   0.00000000
C    4.77670700   0.00000000   0.00000000
C    6.11319100   0.00000000   0.00000000
C    7.34294600   0.00000000   0.00000000
H   -0.11860500   0.00000000   0.00000000
H    8.42558100   0.00000000   0.00000000