14

C    0.99113400   0.19496100   0.14948000
C    2.50721200   0.02089900  -0.19104600
C    3.13034000   1.31345400   0.08535800
O    3.68701000   1.59416600   1.29147100
C    4.82837500   1.29024200   0.60039500
C    5.65660800   2.33720100   0.15265200
N    6.34221500   3.19128100  -0.24582800
H    0.50508300  -0.76286600  -0.08070000
H    0.52206100   0.97784200  -0.46123000
H    0.84932100   0.42076400   1.21423100
H    2.60373300  -0.21630700  -1.26199400
H    2.94198500  -0.78151400   0.42067300
H    2.91239800   2.19311300  -0.54121100
H    5.20412000   0.25847900   0.62233900