19

C    0.98480300  -0.00461100  -0.09270700
C    2.49988000   0.09390700  -0.01043300
C    3.04781800   1.16041000   0.94575600
C    4.45258400   0.65850800   1.21899900
O    4.40949100  -0.74500900   1.07456300
C    3.18913200  -1.17251800   0.52909000
C    3.37060600  -2.40351400  -0.33269800
H    0.67232300  -0.81212800  -0.76940600
H    0.56907400   0.93244600  -0.48680200
H    0.53797400  -0.18390900   0.89708500
H    2.91283200   0.26025900  -1.02287800
H    2.46588600   1.18354100   1.88190000
H    3.04696100   2.17077700   0.51849400
H    5.19289200   0.97498200   0.44561300
H    4.93396300   0.87155600   2.18888100
H    2.63751200  -1.48234300   1.46586300
H    3.92804100  -2.13825100  -1.24281300
H    2.37907700  -2.77924400  -0.61656400
H    3.90689200  -3.19790600   0.20266700