14

C    2.30009100  -0.52960200  -1.56742400
O    2.11530300   0.40246000  -0.50425800
C    3.08751600   1.31566700  -0.27127300
C    3.36589200   1.48375900   1.26634600
O    3.63114900   2.89048400   1.34816100
N    2.97668000   3.53550300   0.42283200
C    2.56874700   2.72590400  -0.50247100
H    1.49164300  -1.26231400  -1.48222000
H    3.27943100  -1.02566000  -1.47232900
H    2.23444300  -0.01621100  -2.53960800
H    4.03080800   1.12219900  -0.82004400
H    4.23369600   0.95862600   1.67831900
H    2.44090700   1.24587400   1.81557300
H    1.88728000   3.05422500  -1.29171300