17

C    2.05955600  -2.05421400   0.41913500
C    3.07591400  -0.99489100  -0.02664400
C    2.92649600   0.26857900   0.73583400
N    2.74919600   1.39203000   0.16235500
N    2.60621100   2.57599100   0.65653100
C    2.43824100   3.69567500   0.07160100
C    2.29347400   4.95945300   0.82225100
H    2.24333000  -2.98476400  -0.13286300
H    1.02954900  -1.73340700   0.21052800
H    2.14793700  -2.27634400   1.49249800
H    3.00923900  -0.78842000  -1.10371600
H    4.09936500  -1.35648200   0.18072100
H    2.96056600   0.25068400   1.83774600
H    2.40344800   3.70197000  -1.02953500
H    2.34692500   4.80690100   1.90616100
H    1.33274000   5.42614900   0.55169000
H    3.08143500   5.65818100   0.49829200