11

C    0.97378900   0.01508700  -0.12791900
C    2.34564000  -0.00771800   0.00147400
C    3.26833200  -1.17181400  -0.01528500
O    4.55354400  -0.56393900   0.16275300
N    4.47230100   0.72443600   0.27093400
C    3.19933300   1.10526100   0.18353200
H    0.39597000  -0.90278300  -0.26529100
H    0.43164900   0.96384800  -0.09473700
H    3.29845700  -1.73064900  -0.96761700
H    3.12853300  -1.89288900   0.80962000
H    2.95230000   2.16582000   0.25528600