19

C    1.27176400  -0.77974500  -0.64171000
C    1.94550800  -0.22570700   0.63127600
C    2.63111800   1.06990600   0.36281800
O    2.04590400   2.21188200   0.48740100
C    0.69649100   2.37395500   0.96091300
C    3.97025200   1.12174100  -0.10752100
C    4.70269200   2.34886000  -0.44101600
H    0.78454400  -1.73336900  -0.40092500
H    2.00875200  -0.96466900  -1.43560600
H    0.50701800  -0.09550400  -1.03492400
H    2.69894600  -0.94282400   0.98763900
H    1.20606600  -0.10634500   1.43552700
H    0.47304300   3.43734500   0.83826500
H    0.64819300   2.09664300   2.02247400
H    0.00815300   1.76520500   0.36174300
H    4.47463000   0.15704500  -0.22423500
H    4.11734400   3.26228200  -0.29170700
H    5.04862300   2.29163000  -1.48923900
H    5.63054100   2.39503200   0.15754600