17

C    1.21284700  -0.23457700  -0.65954800
O    2.59327700  -0.07981800  -0.28496200
C    3.15738800   1.07276400  -0.23876400
C    4.50898300   1.18154800   0.13185000
C    5.33125300   0.01256900   0.47760700
C    5.11225900   2.54446600   0.16910600
O    6.43317500   2.46287300   0.54928300
H    1.19261000  -0.88982600  -1.53842900
H    0.75974100   0.74051500  -0.88269400
H    0.70685500  -0.72177900   0.18234200
H    2.55866800   1.95942300  -0.49454100
H    4.78882900  -0.93581600   0.41685800
H    5.75093300   0.16182200   1.48821300
H    6.22069200  -0.00009500  -0.17698100
H    4.49296100   3.16564800   0.85670200
H    4.97050700   3.00042600  -0.83798400
H    6.83369700   3.33765000   0.57695200