17

C    0.98594700   0.01358100   0.16133200
C    2.44932400   0.00993000  -0.02400400
C    3.27695900  -1.11756100  -0.05740800
C    4.68027200  -0.74608400  -0.25848000
C    4.69624600   0.75081800  -0.35489400
C    5.77874600   1.52191900  -0.54034700
C    3.27842800   1.22509800  -0.20571500
H    0.57360900  -0.99586400   0.27426900
H    0.49908100   0.51151000  -0.69460100
H    0.72055600   0.61540200   1.04741800
H    2.92060300  -2.14452500   0.05258800
H    5.32439400  -1.14330000   0.55833700
H    5.10705900  -1.25098400  -1.15451800
H    6.77570800   1.08595900  -0.63889900
H    5.69883700   2.60993900  -0.59897100
H    2.92633300   1.81726300  -1.07703600
H    3.14403500   1.92613900   0.64536900