15

C    0.99218800  -0.04926400   0.08810600
C    2.34719900   0.16292200  -0.08133900
C    3.02935500   1.37456500   0.21867000
C    4.38773500   1.21050100  -0.03751500
C    4.66280000  -0.12782500  -0.51603300
C    4.31043800  -1.24561000   0.53346200
C    3.34712200  -0.84200000  -0.54653600
H    0.53878200  -1.02039800  -0.12543900
H    0.33921200   0.75953700   0.42587900
H    2.56458200   2.27259300   0.62807200
H    5.14926300   1.97960400   0.11082600
H    5.50943200  -0.34820400  -1.16894600
H    4.86783900  -2.17748300   0.41254200
H    4.12678900  -0.93312900   1.56473700
H    3.10473400  -1.56131900  -1.33316700