15

C    0.88727200  -0.01927600   0.13665400
C    2.36064900   0.02849300  -0.07084300
C    3.26181800   0.97193700   0.84559200
C    4.26794200  -0.02404100   1.44927100
C    3.30812200  -0.98739100   0.75317000
H    0.46149200  -0.88502300  -0.39622500
H    0.42225300   0.87298600  -0.31454600
H    0.60641300  -0.07304300   1.19761900
H    2.64832000   0.07812500  -1.12772700
H    2.60305700   1.40283400   1.61170900
H    3.75424500   1.67014800   0.14831800
H    5.27265600   0.02209100   1.01999300
H    4.29541100  -0.07139100   2.54129200
H    3.80642100  -1.58745800  -0.02591400
H    2.65312300  -1.51432100   1.45996500