15

C    3.01328200  -0.90088500   0.14696500
N    2.92013400   0.26019900   0.67623500
N    3.33194100   1.36892200   0.14525400
C    4.57894100   1.54854400  -0.60776900
C    4.60403500   3.03342900  -0.81358700
C    3.54428500   3.62394900  -0.26320300
C    2.64327600   2.63342800   0.40905000
H    2.79738300  -1.76524000   0.78214100
H    3.26073300  -1.05045700  -0.91492300
H    4.52261800   0.96704900  -1.54814900
H    5.42650600   1.15331000  -0.01962600
H    5.41253400   3.52689200  -1.35211100
H    3.32557400   4.69125000  -0.27360200
H    2.54914700   2.76748600   1.50108500
H    1.62045200   2.58865500  -0.00719900