13

N    1.17187600   0.11033900  -0.08917300
N    2.45447900  -0.01454300   0.13884200
C    3.21244200  -1.15582700   0.26196700
C    4.51466300  -0.81526800   0.45562500
C    4.68412300   0.66945800   0.46504100
C    3.28750600   1.18946800   0.25349100
O    2.79873300   2.26628200   0.17715900
H    0.81708700   1.06858200  -0.07787700
H    0.56080200  -0.69748400  -0.01520600
H    2.75738800  -2.14424700   0.19933100
H    5.32450300  -1.53234000   0.58422300
H    5.09333100   1.05644500   1.41368400
H    5.35153300   1.03615600  -0.33341000