17

C    0.89642500  -0.27399600   0.01931400
C    2.41423000  -0.24393900  -0.14605300
C    2.89255500  -0.92405500  -1.42111300
N    2.91316100   1.15066300  -0.15031800
C    2.99819700   1.95625600   0.89006400
N    2.81646800   1.54268900   2.13676000
S    3.34245200   3.64491500   0.59913300
H    0.56547700   0.23225900   0.93782500
H    0.55398700  -1.31666300   0.06885200
H    0.40402200   0.20687400  -0.83841600
H    2.89701400  -0.74877500   0.70905500
H    2.44888000  -0.45050300  -2.31102800
H    2.57798600  -1.97579800  -1.41527800
H    3.98813500  -0.89901100  -1.50692000
H    3.18607600   1.54301300  -1.04906900
H    2.72230100   0.55919900   2.37015200
H    2.78104900   2.21322900   2.89717000