16

C    3.05859500  -1.12749800   0.51687900
O    3.99862700  -0.06374200   0.55093600
C    3.85332000   0.90633600  -0.37761600
C    4.85370900   1.96410300  -0.28039400
C    4.86972800   3.05085900  -1.15087500
C    5.84485900   4.14159900  -1.10273000
H    3.32796300  -1.80892000   1.32990400
H    3.11134500  -1.66362200  -0.44469800
H    2.03592600  -0.74930500   0.67804700
H    2.83658900   1.39395000  -0.35695600
H    3.86845500   0.51633500  -1.43566300
H    5.60926200   1.88219900   0.51116300
H    4.09738900   3.09777700  -1.93107800
H    6.58868900   4.03662300  -0.30424600
H    5.30882900   5.10435100  -0.99885500
H    6.34938000   4.22278500  -2.08443600