12

O    1.94992900  -0.44285900   1.10794800
C    2.34189400  -0.07904700  -0.16854400
C    2.87764600   1.35276100  -0.04334600
N    2.07139700   2.39260200   0.13384500
O    0.86266200   2.09980600   0.48962200
C    4.24323100   1.62891700  -0.06318200
C    5.45004800   1.80992500  -0.06848600
H    0.99457800  -0.36346700   1.21915100
H    1.54011800  -0.10779400  -0.92424500
H    3.16695800  -0.72272200  -0.50303200
H    0.33087800   2.91401800   0.39482300
H    6.51733800   1.98321600  -0.07508400