13

C    1.72289600  -0.62716700   0.63633300
O    3.09698400  -0.28951300   1.01019400
N    3.47707600   0.89695400   0.76681300
C    4.48768200   1.32874700   0.13340100
C    4.87814800   2.77339200   0.19502500
C    6.31619300   2.88769300   0.44219800
N    7.45149700   2.94247100   0.63894700
H    1.69888900  -1.71984000   0.68614800
H    1.52306400  -0.24246400  -0.37174700
H    1.05962500  -0.18127300   1.38960700
H    5.05246700   0.61968700  -0.49565100
H    4.30282000   3.30812100   0.96522300
H    4.64191000   3.23028500  -0.78365100