13

O    0.83943000   0.24900600   0.06878500
C    2.00108600   0.10242200   0.24440600
C    2.97091700   1.26047800  -0.07164100
C    2.47526700   2.69663700  -0.21984200
C    3.43961500   3.12370700   0.89905700
C    3.80808800   1.65580400   1.23456600
O    4.35927000   1.03241800   2.04957300
H    2.47703400  -0.84066800   0.60306300
H    3.72431000   0.94190800  -0.81818600
H    1.41708900   2.81107100   0.04555300
H    2.66213700   3.14985200  -1.19846300
H    4.35399500   3.65492100   0.58923200
H    3.00457600   3.58074400   1.80356400