15

N    1.42982000   1.60138800   0.63123700
N    2.65664700   1.87891300   0.35454200
C    3.55410300   0.91007400   0.49160600
O    4.78108800   1.10586100   0.23864300
C    5.29588000   2.39719500  -0.21781900
C    6.77006500   2.29758600  -0.42467400
C    7.52461500   1.21978200  -0.23447500
H    0.74860100   2.35361100   0.52229800
H    1.10436200   0.68117400   0.94989300
H    3.31209300  -0.11198100   0.82640100
H    5.02872600   3.14145900   0.54843600
H    4.75801400   2.65087700  -1.14453800
H    7.21535300   3.23751800  -0.76694300
H    7.11331800   0.26708200   0.10611400
H    8.59952700   1.26145100  -0.41833200