17

C    2.56369000  -1.10090500   1.48708900
C    3.60099000  -0.32432600   0.67763100
C    3.23499100   1.16415000   0.64272500
C    3.40535700   1.92595000   1.87122000
C    2.54476500   2.91300700   2.26840600
C    4.32946400   1.89107200  -0.38156000
O    5.47624500   1.67909300  -0.31414500
H    2.81724400  -2.16991800   1.46848800
H    1.55232100  -0.99174100   1.06869700
H    2.54256500  -0.77208100   2.53669200
H    3.64273000  -0.71249400  -0.35114100
H    4.60822100  -0.43469600   1.10738000
H    2.26437600   1.35658700   0.15985700
H    4.27768400   1.68767200   2.49192100
H    1.69994100   3.22384000   1.64510800
H    2.66395500   3.40467400   3.23785300
H    3.82271000   2.56492900  -1.11100700