17

C    1.42097200   1.03718900  -0.09630100
C    2.85190900   0.82201700  -0.34713100
C    3.73434400  -0.12498300  -0.60000000
C    5.23663400  -0.00503900  -0.64581200
C    5.87358700   1.19306700   0.07996200
C    5.53541400   2.55132600  -0.38708400
O    4.41292400   2.91327300  -0.78236400
H    0.98179800   1.77586400  -0.78125000
H    1.24590300   1.36851500   0.93897000
H    0.89223200   0.07529800  -0.22892500
H    5.56668300  -0.01576700  -1.69877800
H    5.66905300  -0.91168100  -0.19852300
H    6.96906900   1.10337500   0.08501200
H    5.57563800   1.19875900   1.15181500
H    3.33587000  -1.11592900  -0.87564100
H    6.29147500   3.35323000  -0.36977900
H    3.68118800   2.13288900  -0.71274900