15

C    0.86227500  -0.04578000  -0.30730300
C    2.37736400  -0.01772600  -0.04127500
C    3.24635700  -1.13053000  -0.50800400
O    3.38433700  -1.38478400  -1.78078700
C    2.98490000  -0.35148200  -2.66390100
O    3.39225600   0.86629700  -2.06533500
C    3.25377000   0.93776500  -0.76940700
H    0.42673200   0.89806000   0.04670400
H    0.42080900  -0.87198400   0.26571300
H    0.58832600  -0.17497900  -1.36032500
H    2.55548000   0.11735600   1.03340200
H    3.86312200  -1.75375800   0.14687800
H    3.53688600  -0.47183800  -3.60083200
H    1.89791100  -0.36825700  -2.82644800
H    3.87553100   1.70002900  -0.28977400