14

O    0.90122700  -0.03108100   0.18606300
C    2.20244400  -0.00715500  -0.02339600
C    3.15040100   1.02219400   0.88337000
C    4.15499900  -0.00489400   1.36722600
C    3.18184700  -1.04195200   0.84170800
C    2.51676900   0.02640200  -1.43520600
N    2.82171400   0.05376200  -2.55026700
H    0.65334100  -0.05439600   1.12509200
H    2.48256400   1.42480300   1.65644300
H    3.50232400   1.77667900   0.16358300
H    5.10713300   0.02050800   0.82714400
H    4.32928700  -0.02406300   2.44746400
H    3.55662100  -1.75591700   0.09270400
H    2.52743300  -1.49570900   1.59774900