13

C    1.08217400  -0.15322000  -0.45425200
C    2.25698500   0.25479300   0.42368100
C    2.76139300   1.63682200   0.26861800
C    3.90680000   2.26768400   1.02587700
O    4.22550900   3.40013800   0.81231600
N    1.77807300   3.23308700  -1.32806200
N    2.19429000   2.47964500  -0.61831900
H    0.81401700  -1.19430300  -0.23667100
H    1.33328500  -0.09547900  -1.52351100
H    0.19283900   0.46307300  -0.25686000
H    3.13566100  -0.40549900   0.27106800
H    2.02697300   0.13728300   1.50279000
H    4.39072900   1.59332100   1.76293600