15

C    1.75085100   0.01554800  -0.45606600
C    2.28163000   0.03778100   0.94862900
C    0.27373500  -0.00909600  -0.32937900
O   -0.42087100   1.06037400  -0.24796600
C   -1.81971700   0.72588300  -0.01495000
C   -1.79195500  -0.81068400   0.00503100
O   -0.38178000  -1.10046500  -0.21876700
H    2.03350200   0.91714200  -1.01820500
H    2.06492900  -0.88600300  -1.00135000
H    2.47044100  -0.89891500   1.47601400
H    2.43235200   0.99006400   1.46014700
H   -2.11071500   1.18676100   0.93616900
H   -2.39953800   1.15985200  -0.83771400
H   -2.35477200  -1.28644200  -0.80637000
H   -2.06749300  -1.25684900   0.96769600