14

C    0.97937200   0.01481600   0.04263800
C    2.47654500   0.03155800  -0.00839700
C    3.17721400   1.24700900  -0.10523400
C    4.57145400   1.24821200  -0.18014500
N    5.11904100   0.05827000  -0.15346500
C    4.60210100  -1.14212600  -0.06220200
C    3.20818800  -1.16921000   0.01399600
H    0.58214300   0.92802500   0.50356100
H    0.60525600  -0.85739200   0.59355000
H    0.58289600  -0.04212900  -0.98434700
H    2.66015400   2.20896200  -0.12150000
H    5.19845600   2.14234700  -0.25528000
H    5.25182600  -2.02301100  -0.04979700
H    2.71594000  -2.14101300   0.09313000