9

N    0.92378900  -0.01414000  -0.00044400
C    2.08861100   0.03855100  -0.00029300
C    3.49551700   0.06132500   0.00084000
N    4.14271000   1.23635900   0.00194900
S    5.71968700   0.97312600   0.00289800
C    5.64508400  -0.77741000   0.00158600
C    4.34488700  -1.14235500   0.00043100
H    6.54338100  -1.39845200   0.00171400
H    3.95824200  -2.16260200  -0.00061000