21

C    0.87081300  -0.00213800   0.15293800
C    2.40537700  -0.10321500   0.09969900
C    2.92499400  -0.74904700   1.39440700
C    2.86446500  -0.86582800  -1.13564700
N    2.91191500  -2.23479600  -1.10822600
C    2.96882200   1.32379000  -0.04379700
N    4.43746400   1.22577200  -0.31655600
H    0.46785200   0.47418200  -0.75314800
H    0.53743700   0.57815400   1.02776600
H    0.43555600  -1.00830100   0.22484000
H    2.68259300  -0.12455100   2.26708900
H    4.01449500  -0.92453300   1.38617300
H    2.44247900  -1.72241000   1.56437000
H    4.50406400   0.36314000  -0.92729900
H    2.52284900  -0.46019800  -2.09786700
H    3.22527000  -2.72334300  -0.27847700
H    3.04754800  -2.73946400  -1.97503600
H    2.80726200   1.94100400   0.84979100
H    2.52211200   1.83227600  -0.90941100
H    4.98630700   1.05567800   0.53269700
H    4.83036600   2.04105800  -0.79664800