15

C    1.44758600   0.89315200  -0.57484300
O    2.78751900   1.20190100  -0.09474100
C    3.78536900   0.56287500  -0.56336600
O    3.79320500  -0.31305800  -1.41942600
C    5.14730800   0.78844000  -0.03332900
C    6.44274600   0.67282000  -0.92266300
C    5.93788700   2.00240100  -0.64131900
H    0.78844400   1.57783400  -0.03588500
H    1.21150800  -0.15106900  -0.33557000
H    1.40079800   1.07071900  -1.65660100
H    5.26582000   0.47797700   1.01121000
H    6.29158700   0.24306000  -1.91519300
H    7.28710300   0.27906800  -0.35280700
H    6.37423400   2.60022000   0.16759600
H    5.42096200   2.56347500  -1.42383000