17

C    0.96555700   0.10038900  -0.16354500
C    2.47905800  -0.06279700   0.02597100
C    2.92151800  -1.32793100   0.77589900
N    3.76991900  -0.76365100   1.81507200
N    3.85133300   0.53224100   1.85001200
C    3.11719600   1.01737600   0.85201600
C    2.97167800   2.46445700   0.64173500
H    0.57099500  -0.73540300  -0.75653900
H    0.73920100   1.02860300  -0.70505200
H    0.44297200   0.11963300   0.80390100
H    2.96035600  -0.02423600  -0.96953300
H    3.49962300  -2.04645000   0.17475800
H    2.08741300  -1.87496100   1.24775700
H    4.28448700  -1.29745900   2.51919800
H    3.06107800   2.71270000  -0.42672000
H    3.69984600   3.02888100   1.23559900
H    1.95406300   2.76750400   0.94877700