18

C    0.89404700   0.12197400   0.02698300
C    2.42039100   0.06910600   0.04156000
N    3.05156800  -0.48262400  -1.15214600
C    2.99766800   1.45115300   0.20327600
C    4.01297500   1.82946300   1.21913500
C    4.89765800   1.48728400   0.09388200
O    5.36313600   2.44494700  -0.64962300
H    0.49300900   0.55581200   0.95500100
H    0.49041100  -0.89569300  -0.07342100
H    0.52951000   0.72251700  -0.82103200
H    2.75073500  -0.54050600   0.89856000
H    2.56969700  -0.19466900  -2.00265300
H    3.07325000  -1.50012800  -1.13553100
H    2.64885800   2.23876300  -0.47605300
H    4.08713400   1.14404100   2.07142900
H    4.04008200   2.89374100   1.48169600
H    5.19884500   0.45354400  -0.10511600
H    5.86849300   2.11858100  -1.41076600