17

C    1.01419800   0.09519600   0.09922600
C    2.44632800   0.00914400   0.03820400
C    3.68214900  -0.08865300  -0.04713900
C    5.07799500  -0.14058100  -0.09281300
C    5.70480600   1.04319700   0.94505900
C    6.73587800   0.00513700   1.36744800
C    5.90311900  -1.13578000   0.74334100
H    0.66448100   1.08479600  -0.23350400
H    0.63474300  -0.14135200   1.10372000
H    0.60017500  -0.64990900  -0.60753600
H    5.48317200   0.09078000  -1.08916300
H    4.97147100   1.31353300   1.71363400
H    6.00221200   1.91693200   0.35257700
H    7.69473800   0.14746300   0.85210900
H    6.90773700  -0.06368500   2.44892100
H    6.45632400  -1.86200600   0.13320600
H    5.27989800  -1.66413200   1.47604900