15

C    0.80430900  -0.02888600   0.00176200
C    2.32387000   0.02436600  -0.00635300
N    2.91037900  -0.72712700  -1.04392900
C    2.94669200   1.45214800   0.05321900
C    4.38777500   1.42870900  -0.14696400
C    5.57982600   1.35321300  -0.34060000
H    0.43045900   0.49718700   0.88932500
H    0.43373500  -1.06304700   0.04501900
H    0.39494500   0.46566000  -0.89095500
H    2.70829800  -0.48101600   0.92423500
H    3.88842400  -0.53363300  -1.30723500
H    2.42014900  -1.49992900  -1.50337900
H    2.69013800   1.89118700   1.02842100
H    2.45891700   2.06597700  -0.72235900
H    6.64646900   1.32483800  -0.49218700