14

C    0.96465500  -0.01215100   0.27732200
C    2.34561600   0.09560900  -0.26168500
O    2.50110500   1.09272100  -1.16765400
C    3.77496800   1.23888100  -1.72211500
C    4.45123600  -0.10155600  -1.88175200
N    3.75933700  -1.14691500  -1.65852300
O    2.60118100  -1.17178000  -1.15227600
H    0.77949400   0.85829800   0.92258300
H    0.86584500  -0.92468300   0.87831000
H    0.23351500  -0.01380500  -0.54134400
H    3.16494900   0.03035600   0.47752900
H    4.44149000   1.83722800  -1.06731900
H    3.67225400   1.76253600  -2.68423700
H    5.50649900  -0.20831900  -2.15114300