16

C    2.03020600  -0.74071400   1.44378800
C    2.14457800  -0.41830400  -0.03573600
C    3.10108700   0.76296800  -0.35500800
N    4.46487600   0.45043400   0.00259200
C    5.07509700   0.78511100   1.14870600
N    4.43072100   1.54275300   1.99639900
H    1.25049200  -1.50063800   1.59701200
H    1.74917600   0.14488700   2.03339300
H    2.96112400  -1.15702400   1.86017300
H    1.17237600  -0.09894400  -0.44085700
H    2.45059500  -1.30113200  -0.61895000
H    2.80114500   1.65634900   0.20762100
H    3.09349500   0.96370700  -1.43621600
H    4.98971000  -0.15127900  -0.63819600
H    6.09648700   0.39997300   1.27979400
H    4.94733500   1.66734200   2.87419900