15

C    0.95830600   0.00394200  -0.00980300
C    2.43443900  -0.20292600  -0.06278700
C    3.03605100  -0.80889800  -1.28306400
C    3.14797000   1.56073500   0.04700100
O    4.45472900   1.49765400   0.03193400
H    0.62193600   0.54481200   0.88473500
H    0.51352400  -1.00850200   0.04765000
H    0.56049900   0.47822500  -0.91810800
H    2.88009300  -0.54431500   0.88445700
H    2.65082800  -0.36462900  -2.21215000
H    2.72970400  -1.87304500  -1.28074100
H    4.13280500  -0.78922800  -1.27735900
H    2.65679100   1.88941300   0.97305100
H    2.73022200   1.90608700  -0.90699000
H    4.85276900   1.47232300   0.91757400