10

C    0.92735200   0.00615400   0.03833900
C    2.36899500   0.04906800   0.15930800
C    3.15945600   1.16370700  -0.19868300
C    4.54351100   1.13131600  -0.05329700
N    5.70873800   1.09475600   0.07280200
H    0.65391400  -0.88113000  -0.57236500
H    0.46521500   0.91646900  -0.35928900
H    0.50066500  -0.25928000   1.02950000
H    2.88864400  -0.83547300   0.55285600
H    2.70204200   2.07794100  -0.59827100