18

N    1.31552000   0.32282500  -0.51390200
C    2.37758400   0.94731400  -0.13526000
C    2.90703800   0.91104200   1.22841700
C    4.04915700  -0.18345500   1.34229100
C    5.08818800  -0.01659600   0.22877100
O    5.25429800   1.35287500  -0.02667600
C    3.49485500  -1.55935000   1.40798700
H    1.00163500   0.33599700  -1.48384100
H    0.74919000  -0.20902200   0.14825200
H    2.95168300   1.48307300  -0.90159200
H    2.12481400   0.69641100   1.97052900
H    3.36865000   1.88638200   1.43363200
H    4.52002800   0.06782000   2.30864300
H    4.74335200  -0.55450000  -0.67950200
H    6.02488900  -0.50300800   0.54862800
H    6.07673100   1.50636600  -0.50111200
H    3.70705600  -2.29901500   0.63106000
H    2.94330900  -1.88726900   2.29250200