17

C    1.01368200  -0.19097300  -0.08148800
C    2.33913100   0.46323200   0.13659900
O    3.50292900  -0.31620300  -0.09505200
C    3.32753900   0.79696600  -0.90472300
C    4.31751400   1.98021400  -0.73364100
C    4.55759400   2.41160200   0.64603800
C    4.91302600   1.55603100   1.67570400
H    0.22296800   0.57186700  -0.09734600
H    0.79547900  -0.89446900   0.73475100
H    1.00475600  -0.74325500  -1.03110900
H    2.42569000   1.09485400   1.04548200
H    3.16572000   0.56921800  -1.96647600
H    3.99765400   2.81437700  -1.37103800
H    5.26233100   1.57814600  -1.15525800
H    4.47149400   3.48066700   0.87729900
H    4.78858600   0.46979600   1.56751400
H    5.31533500   1.94498300   2.61642500