17

C    0.94731000   1.74326500   1.39425600
C    2.42387500   1.57686800   1.26570300
C    3.08212900   1.33167600   0.12788600
C    4.57135100   1.17093500   0.04558600
C    5.51400600   2.21166200   0.67335900
O    6.25565100   1.20558400   1.33848500
C    5.31466000   0.20793700   0.98677000
H    0.70753800   2.73216000   1.81460400
H    0.53595100   0.99604200   2.09034500
H    0.43870100   1.63984700   0.42665100
H    2.99167800   1.66958200   2.20636300
H    2.53195200   1.23733800  -0.81213100
H    4.89573100   0.97656900  -0.99051100
H    5.04535900   2.86334900   1.44919200
H    6.19502900   2.86054600   0.08921800
H    5.84022200  -0.70561300   0.64722300
H    4.75287100  -0.07547600   1.90891600