9

N    0.86463700   0.23257300   0.00533500
C    2.02709100   0.18893000   0.00167100
C    3.42973700   0.09667100  -0.00262200
N    4.25780500   1.12504300  -0.00864800
C    5.51487500   0.72136300  -0.01152900
C    5.69441800  -0.71429700  -0.00758200
S    4.23289800  -1.51047300  -0.00029500
H    6.34378300   1.43486800  -0.01651600
H    6.65158200  -1.24463800  -0.00907300