19

C    1.44165600  -0.45314400   1.17508300
C    2.90868200  -0.04648100   0.98980900
C    3.10082000   0.78685100  -0.22150500
N    3.62798100   1.94546700  -0.17216000
N    3.86549500   2.77378000  -1.17176300
C    2.99259900   3.93063100  -1.30566300
C    5.21824600   2.81824000  -1.70740500
H    1.35263300  -1.10660300   2.05227600
H    1.05855800  -1.00629800   0.30495900
H    0.80132500   0.42443100   1.34200200
H    3.52519000  -0.95159100   0.84569600
H    3.30031400   0.48735200   1.86666100
H    2.76475300   0.39485800  -1.19715400
H    1.96788200   3.64477700  -1.04070300
H    3.03601900   4.27945500  -2.34498300
H    3.33473100   4.73725800  -0.63635200
H    5.63981000   1.80610600  -1.71607100
H    5.84729300   3.47350300  -1.08237800
H    5.17446100   3.22299300  -2.72620700