15

C    0.78305700   0.02190000   0.15261700
C    2.25862100   0.18533000  -0.08644900
C    3.11538500   1.02198700   0.87652200
O    4.10649500   0.00115400   1.08848600
C    3.35345200  -1.04816600   0.75360100
C    2.72503200   0.05794700  -1.41275600
C    3.12279000  -0.09332400  -2.55845100
H    0.55650600  -0.09688000   1.22058000
H    0.37019800  -0.82093800  -0.41677300
H    0.28335000   0.94056400  -0.19926600
H    2.59798100   1.28296100   1.81225800
H    3.59265700   1.90796300   0.43564000
H    3.86204000  -1.86009200   0.21749000
H    2.56068800  -1.36353400   1.45730800
H    3.46915600  -0.20878200  -3.57488700