12

C    0.95594400   0.00246800   0.00077700
C    2.38840900   0.02457400   0.00096500
C    3.62620600   0.02962100   0.00052600
C    5.00118100  -0.00206500   0.00022400
C    5.75723000   1.17200200  -0.00005000
C    7.16241100   1.14001300  -0.00038600
N    8.32645200   1.11771600  -0.00067400
H    0.52480100   1.01264600   0.01160600
H    0.60595000  -0.57255300   0.87709800
H    0.60774900  -0.55101600  -0.89027000
H    5.50661900  -0.97610000   0.00018300
H    5.27038100   2.15421100  -0.00001900