15

C    1.14333900  -0.40267100   0.05865500
C    2.50834100  -0.19257200   0.24159800
N    3.15273900   0.83957600  -0.27794200
C    4.58135300   1.08809000  -0.17643800
N    5.43416300   0.15616300  -0.16433800
C    4.96151700   2.50759800  -0.12890300
C    4.13881600   3.52090400   0.15526400
H    0.65953800  -1.26098900   0.52907100
H    0.53169000   0.27455000  -0.54493900
H    3.10231500  -0.88271300   0.85026100
H    2.61996700   1.53519600  -0.80789900
H    5.07209100  -0.79551100  -0.25059200
H    6.02485200   2.67310900  -0.31529600
H    3.07866400   3.39263200   0.39706200
H    4.51249500   4.54650100   0.18235600