15

C    0.98477400   0.13608700  -0.54778300
O    2.40718000   0.16764500  -0.33615900
C    3.03260700   1.28160600  -0.20820900
C    4.44272300   1.31884300   0.00167600
C    4.85884000   2.73800800   0.10832000
C    3.56612900   3.47650100  -0.05959300
C    2.51870500   2.62595800  -0.24150900
H    0.71891800  -0.92199500  -0.62042700
H    0.74008400   0.65589200  -1.48432000
H    0.47457000   0.59942200   0.30790000
H    5.08151900   0.43691600   0.06854500
H    5.60387200   3.01509000  -0.66045700
H    5.34654900   2.95987800   1.07570500
H    3.49012300   4.56540000  -0.03625000
H    1.47747200   2.91038800  -0.38646800