17

C    2.28932400  -1.00295800  -1.04892700
N    3.58864200  -0.66156700  -0.51223600
N    3.91218200   0.57270700  -0.30305800
C    5.11874800   0.84280900   0.19248300
C    6.17124700  -0.15181200   0.54426800
O    5.42089600   2.07611800   0.39280100
C    4.50029000   3.14728500   0.09822900
H    2.41579300  -1.54527100  -1.99781100
H    1.72987200  -0.07605000  -1.21129300
H    1.75748500  -1.65142500  -0.33676100
H    4.24243100  -1.42449900  -0.30323900
H    5.80929400  -0.84455900   1.32089400
H    7.05333600   0.37211900   0.92811000
H    6.46820500  -0.73554000  -0.34181600
H    5.03427800   4.06182000   0.36916800
H    3.59159800   3.02656700   0.70037800
H    4.25274100   3.13542100  -0.97015900