18

C    0.67899600  -0.07792000   0.38569400
N    2.09256400  -0.04117300   0.56185600
C    3.02767300   1.05028500   0.72560400
C    4.13490700   0.02098800   1.05909000
C    3.07893300  -1.08053900   0.75702800
C    5.39132400   0.00138400   0.24300200
C    5.80571100   0.96053500  -0.58168500
H    0.39444100  -0.99235400  -0.15284500
H    0.34582200   0.82176800  -0.14913900
H    0.19319700  -0.09436000   1.38078100
H    2.71422600   1.76585500   1.50526800
H    3.14513400   1.60645200  -0.22298400
H    4.37759300   0.03479500   2.13281200
H    3.23805600  -1.65615700  -0.17454300
H    2.79812100  -1.78658500   1.55794000
H    6.01304000  -0.88922100   0.38753600
H    5.24946800   1.88827500  -0.74769000
H    6.74982300   0.86291200  -1.12131800