9

N    1.01043900  -0.07161200   0.00510100
C    2.17079200  -0.00910400   0.00132000
C    3.57243300   0.07080800  -0.00326100
N    4.33333400   1.15412700  -0.00750100
C    5.57938500   0.70781900  -0.01061500
C    5.54598000  -0.73231000  -0.00792600
O    4.29021700  -1.09620000  -0.00334100
H    6.45917700   1.35531400  -0.01451000
H    6.31740900  -1.50625200  -0.00893700