20

C    1.07610600   0.30318400   0.10341500
C    2.64086700  -0.02911700   0.01582700
C    2.99991800  -0.93901700   1.19705900
N    2.75975100  -0.74671500  -1.19943500
C    3.39383100   1.28864100  -0.09915000
C    3.94002500   2.00328700   1.10479800
C    4.88357600   1.38648100   0.11797300
H    0.74897100   0.89419400  -0.76089600
H    0.98469300   0.90614600   1.01819600
H    0.47973400  -0.61368300   0.19190100
H    2.72465000  -0.44562600   2.13664000
H    4.07616600  -1.15788000   1.21139800
H    2.44808600  -1.88933400   1.14890000
H    2.98474000  -0.26673100  -2.07592800
H    2.52717800  -1.74220400  -1.25899900
H    2.97825000   1.93780200  -0.87857400
H    3.85477900   1.52767300   2.08422000
H    3.83460800   3.08940100   1.12767700
H    5.44469000   2.03820500  -0.55476900
H    5.43065500   0.49385000   0.43141500