16

C    1.60246100  -0.84623000   0.74437500
C    2.87685700  -0.60631900  -0.01910000
O    3.38930200   0.68943300   0.28945400
C    4.64249900   1.03109000  -0.23014900
C    5.43176000   0.77439100   1.03125500
N    5.72946500  -0.45022100   1.30294700
O    6.54637900  -0.64536200   2.30052900
H    1.20586700  -1.83502700   0.47658200
H    0.84544800  -0.09144900   0.49296900
H    1.77935600  -0.82689900   1.82843800
H    2.74204900  -0.63901400  -1.11704000
H    3.66592500  -1.34791800   0.22388000
H    4.65069200   2.09493900  -0.49561000
H    4.94904400   0.40448000  -1.07960700
H    5.60304600   1.58655100   1.75158800
H    6.56218800  -1.60327400   2.47382500