17

C    0.91190000   1.64893600   1.37326400
C    2.33606800   1.32522800   1.29599000
C    3.18919800   1.71429700   0.26261800
C    4.58995600   1.33628500   0.22214900
C    5.77768900   2.35692600   0.38189200
C    6.28271500   1.30007600   1.37302500
O    5.06688200   0.53096600   1.24332700
H    0.68867600   2.12117200   2.34738700
H    0.33982600   0.69999200   1.40367600
H    0.54704300   2.27287700   0.54879200
H    2.78565200   0.73544600   2.10527900
H    2.80110900   2.29039100  -0.58537500
H    4.70500100   0.84237500  -0.78464700
H    5.46347400   3.30552200   0.83246900
H    6.37300300   2.53748700  -0.51928900
H    7.15722900   0.71247000   1.06000100
H    6.41820500   1.64929400   2.40732400