14

C    0.93209800  -0.06492900   0.00171700
C    2.42348500   0.07339600  -0.00094300
C    3.07394800   1.37882700   0.01203300
C    4.56530400   1.51723200   0.00980800
H    0.63092300  -1.11914200  -0.01495100
H    0.48050500   0.43793800  -0.87135500
H    0.48718100   0.40652500   0.89568900
H    2.91695600  -0.58756200  -0.79194800
H    2.92174800  -0.61057600   0.76613700
H    2.58009200   2.04014900   0.80250400
H    2.57593000   2.06264000  -0.75541400
H    5.01650800   1.01520300   0.88357700
H    4.86644400   2.57146700   0.02563800
H    5.01066400   1.04488800  -0.88347100