15

C    1.00315700  -0.30708400  -0.37109700
N    2.43218600  -0.08191300  -0.29708300
C    3.05021800   1.08078100  -0.06554600
N    2.25254100   2.14508400   0.11631700
C    4.46824800   1.11575300  -0.02755800
C    5.67975500   1.20074700   0.01484600
C    7.12430000   1.29500100   0.06404400
H    0.72489600  -1.04964000   0.39213900
H    0.76390600  -0.72011500  -1.36284600
H    0.47088800   0.63404700  -0.20633300
H    3.03992100  -0.89168900  -0.43534500
H    2.80872500   2.99095800   0.28697000
H    7.43735100   2.32688300   0.27638600
H    7.55425200   0.98225200  -0.89927800
H    7.51786300   0.63300100   0.84981400