15

N    0.91864200   0.52287600  -0.00239200
C    2.21545800   0.20794600   0.00523400
C    2.79290900  -1.17037300   0.09660600
C    4.29454900  -1.19442300   0.08065300
C    5.03793300  -0.09524700  -0.00612800
C    4.45816900   1.28104600  -0.09718000
N    3.00740000   1.27046200  -0.07937400
H    0.32173100  -0.31089300   0.06322700
H    2.37766600  -1.76492200  -0.73654000
H    2.39831600  -1.63991400   1.01525600
H    4.76940300  -2.17527800   0.14477900
H    6.12810400  -0.15258000  -0.01479400
H    4.78991100   1.92666400   0.73652900
H    4.76913000   1.80157000  -1.02147300
H    2.50964200   2.16597400  -0.13714300