12

N    1.05763900  -0.07120700  -0.18486400
C    2.46196100  -0.05969700  -0.03742200
C    3.06582600   1.25032400  -0.02935500
C    3.51516600   2.37481900  -0.02990200
C    3.89888600   3.80945300  -0.05075300
O    5.18569000   4.07775000   0.07349400
O    3.04794200   4.63238400  -0.17574200
H    0.53953100  -0.95598800  -0.20273200
H    0.52108600   0.79993800  -0.27813000
H    2.89303400  -0.71861700  -0.83329200
H    2.71209800  -0.64585400   0.88307400
H    5.73450000   3.28848800   0.16526400