13

C    1.00828400  -0.03411200   0.04746600
C    2.49781700   0.08844700  -0.01944900
C    3.18748500   1.31624800  -0.04473200
C    4.57459300   1.22253900  -0.10812200
N    5.16343500   0.04155900  -0.14068200
C    4.54289700  -1.12262100  -0.11824400
N    3.23060900  -1.01531900  -0.05818300
H    0.53683800   0.95396900   0.07524200
H    0.72454300  -0.60209100   0.94569600
H    0.64399700  -0.59059800  -0.82864900
H    2.66640500   2.27420800  -0.01640800
H    5.22404700   2.10573000  -0.13321500
H    5.06535600  -2.08150000  -0.14673900