18

C    2.26826300  -0.77474700  -1.52206700
O    2.43047300   0.13432500  -0.39507200
N    3.32870600   1.02991600  -0.53151500
C    4.26437300   1.38596600   0.25330600
C    5.01743900   2.65946300   0.07856700
C    4.87448000   3.49086100   1.36400200
C    6.48477600   2.32843700  -0.24185900
H    1.63204800  -1.57435800  -1.13172800
H    3.25568000  -1.13934400  -1.83271500
H    1.76301000  -0.22654900  -2.32782300
H    4.53842900   0.68299500   1.06007500
H    4.56943600   3.20442800  -0.76617700
H    5.30731800   2.96973000   2.23144800
H    3.82530500   3.73367800   1.58303800
H    5.41979700   4.43557000   1.23348100
H    6.96106800   1.77294600   0.58023900
H    7.03541900   3.26981000  -0.37539500
H    6.58112900   1.74539200  -1.16838500