17

C    0.71998600  -0.12862800  -0.10964300
C    2.22444700  -0.21926100   0.03918300
N    2.80762400  -1.17637100  -0.75797900
C    2.94524300   1.29165500  -0.37548400
C    2.45085400   2.32661400   0.53150300
C    1.52478400   3.23953700   0.16931100
H    0.32415300   0.65944500   0.54319500
H    0.26334300  -1.08566900   0.17940100
H    0.42815600   0.10328600  -1.14558000
H    2.56455600  -0.33337400   1.08018800
H    2.40485300  -1.42401600  -1.66058600
H    3.72535600  -1.56310700  -0.54738400
H    2.67192500   1.44929200  -1.42731100
H    4.01977000   1.09976300  -0.26859900
H    2.87397200   2.35743700   1.54126300
H    1.06325500   3.22761000  -0.82302500
H    1.22932900   4.04382200   0.84752800