14

C    1.34166500  -0.53497700   0.30263800
O    2.73744200  -0.21540800   0.13770900
N    2.96290300   1.03150600  -0.13463200
C    4.26676400   1.24413400  -0.26763200
O    4.71192900   2.41305700  -0.53928200
C    3.93788200   3.54793300  -0.72045700
C    4.58744300   4.67755800  -0.99798200
H    1.31793900  -1.61177300   0.49195700
H    0.80822600  -0.27427000  -0.62085500
H    0.95024300   0.03268100   1.15734900
H    5.02460100   0.45794300  -0.15730400
H    2.86116000   3.41055300  -0.61844800
H    5.67660900   4.70502100  -1.07815300
H    4.01989700   5.59701100  -1.14889600