12

O    1.03277200  -0.10783800   0.04321400
C    2.17147800   0.18757300   0.05238700
C    2.89052700   1.47869100  -0.01847400
C    4.21044200   1.28295800   0.01972000
C    4.60039700  -0.16367100   0.11649000
N    4.15040000  -1.00565300  -0.95434600
C    3.30305200  -0.97708700   0.12470800
H    2.34773700   2.41580900  -0.14575000
H    4.97042600   2.06604400  -0.01971700
H    5.50474300  -0.45691700   0.65865300
H    4.61526400  -1.83899900  -1.32503800
H    3.01277500  -1.87736100   0.67608400