17

C    1.73660500   0.17524200  -0.94485700
N    1.92487900   0.02798900   0.48808700
C    0.58436500   0.04120700  -0.00867900
C   -0.34962500   1.18398900   0.37207700
C   -1.67451800   0.77592600  -0.26755200
N   -1.59757400  -0.65720700  -0.35017800
C   -0.30829400  -1.19717500  -0.04612600
H    1.98766000   1.15748100  -1.35710400
H    1.96525100  -0.67026600  -1.60374900
H    2.26670800  -0.89096700   0.76427400
H   -0.44914100   1.23929000   1.46727100
H    0.00599000   2.15748000   0.01539300
H   -2.59919800   1.07314300   0.25683100
H   -1.78850400   1.14886400  -1.30974700
H   -2.39759300  -1.24166800  -0.61007900
H   -0.04188600  -1.99606000  -0.75894800
H   -0.38309500  -1.68103000   0.95567900