14

C    1.06726000   0.03090800  -0.01323500
C    2.54871400  -0.02510100   0.11175000
C    3.21216100  -1.32106200   0.11124200
C    4.42253200  -1.59103900   0.63956400
N    3.17522800   1.12595400   0.25658600
N    4.40788100   1.31419100  -0.05375000
H    0.69663500   1.05963100   0.05076500
H    0.60320800  -0.58515200   0.77378900
H    0.77006100  -0.41044900  -0.97874800
H    2.60281600  -2.14522700  -0.27292200
H    5.03537300  -0.84143600   1.14857300
H    4.81502800  -2.61075400   0.61938200
H    4.84476900   2.17705900   0.27180300
H    4.88955900   0.73801800  -0.75394000