14

C    1.37501600  -0.36455600  -0.20223000
N    2.73550800   0.05996800  -0.28575900
C    3.19165800   1.36606600   0.07967500
C    4.69603800   1.56006100  -0.10667600
C    5.07438700   2.91530600   0.28852200
N    5.33167300   3.99295200   0.61008600
H    1.31464400  -1.25363500   0.45303800
H    1.03757900  -0.69125000  -1.20371800
H    0.73795000   0.44197800   0.17796100
H    3.42182600  -0.62176300  -0.63061600
H    2.87762800   1.54362100   1.12971000
H    2.60273300   2.09881200  -0.51103100
H    4.98289000   1.40664400  -1.15967100
H    5.26236400   0.84216100   0.50856900