5
Properties=species:S:1:pos:R:3 pbc="F F F"
C        0.99825960      -0.00246000      -0.00436000
H        2.09020925      -0.00243000       0.00414000
H        0.63378978       1.02685964       0.00414000
H        0.62703979      -0.52772981       0.87810969
H        0.64135975      -0.50746983      -0.90539962
