15

C    2.50099300  -1.06110100   0.59108700
C    2.07489100   0.19425100   0.26062500
C    2.94197000   1.30521200   0.13576300
C    2.52735300   2.61016700  -0.20394100
C    3.63838600   3.47510000  -0.24242700
C    4.77688800   2.75247100   0.06811600
C    4.43290700   1.32930400   0.33135200
H    1.79321200  -1.88895600   0.67582500
H    3.55390400  -1.28647600   0.78193800
H    1.01003100   0.36650100   0.07972100
H    1.49386600   2.89824400  -0.40581400
H    3.60375500   4.53857900  -0.47842200
H    5.79102900   3.15336500   0.11751700
H    4.96312200   0.65071500  -0.36070600
H    4.73275400   1.02272600   1.34951500