15

O    0.93864100   0.18254200   0.01151400
C    2.30466100  -0.06801800   0.01575400
C    2.95162400   1.32173900   0.00423000
C    4.38122000   1.36364600   0.00400600
C    5.62114200   1.40601900   0.00330600
C    7.00027100   1.44732100   0.00183400
C    7.68896200   2.64780400  -0.00344300
H    0.44860100  -0.64508900   0.01910400
H    2.64553500  -0.63346500  -0.87202200
H    2.64288400  -0.61737200   0.91457000
H    2.59468600   1.91635800   0.87011700
H    2.59615100   1.90031900  -0.87322400
H    7.54761800   0.49733900   0.00515300
H    7.15966200   3.60512000  -0.00671500
H    8.78244600   2.65886000  -0.00438500