17

O    0.78321700   0.41486400   0.41437700
C    1.54614000   1.20688300  -0.43547300
C    2.24789200   2.18085600   0.49774900
O    3.06174700   3.09177200  -0.28368600
C    4.32593700   3.19434300  -0.08176800
C    5.10658100   4.17978000  -0.86808100
C    4.86898500   4.92704000   0.37903800
H    0.24513000  -0.19779400  -0.09528400
H    0.94329300   1.77811100  -1.16569700
H    2.30602800   0.63269600  -1.00103200
H    2.88092600   1.64958200   1.22390800
H    1.51555000   2.80337700   1.02871900
H    4.81282900   2.49565800   0.61326300
H    4.57418100   4.54490800  -1.75318300
H    6.14314200   3.87022600  -1.04582900
H    5.57762900   4.88905000   1.21116800
H    3.99664500   5.58014000   0.46889300