13

C    3.04394700  -1.30057500   0.39950600
N    2.55262300   0.03974000   0.16392500
C    3.27514700   1.14211400   0.03332300
N    2.59219500   2.30543900  -0.18561300
O    3.50544200   3.23951700  -0.27933900
C    4.75581500   2.71965900  -0.12838100
C    4.68686200   1.38655000   0.07471900
H    2.71515900  -1.95282700  -0.42360000
H    2.61440500  -1.67988800   1.33901000
H    4.13662800  -1.30248700   0.46229000
H    1.53982900   0.17440000   0.08612500
H    5.57407200   3.43456700  -0.19337900
H    5.50566700   0.68992700   0.22876400