15

C   -1.20106400  -0.74490200  -0.51467800
O   -1.04310100   0.67142300  -0.56429800
C   -0.00483000   1.01579100   0.34760400
C   -0.01545500  -0.06410400   1.39759000
C   -0.00246900  -1.17677200   0.34003700
C    1.21405200  -0.74239200  -0.48767500
O    1.05431400   0.67359200  -0.54084400
H   -1.25409600  -1.12457100  -1.54495400
H   -2.16126100  -0.95619700  -0.00544300
H   -0.00836500   2.08670300   0.56540000
H   -0.91919900  -0.03619000   2.02143800
H    0.87403000  -0.03432900   2.04152000
H   -0.00517100  -2.21804100   0.67860800
H    2.16304100  -0.95172100   0.04293900
H    1.29091400  -1.12192900  -1.51649400