20

C    1.76534300  -0.29340100   0.62001700
C    2.84631800  -0.04645600  -0.42151700
C    2.39578100  -0.35878000  -1.84074300
C    3.04351100  -1.19556900  -2.65012300
N    3.32260700   1.34169600  -0.45473300
C    2.44910400   2.43431700  -0.11602100
C    4.64450100   1.63257100  -0.94601200
H    2.10322500  -0.01997100   1.62984900
H    1.53808100  -1.36770000   0.61980100
H    0.83132400   0.23863400   0.39088700
H    3.73449300  -0.65659300  -0.19371100
H    1.47117600   0.13336300  -2.16347000
H    3.96277700  -1.70636300  -2.34700200
H    2.65694900  -1.42151200  -3.64667200
H    1.50793600   2.34456000  -0.68332400
H    2.93128100   3.39219000  -0.33888700
H    2.19460500   2.38307900   0.95555400
H    5.16484400   0.71048300  -1.22533800
H    5.20681200   2.16180700  -0.15696800
H    4.57641800   2.30505000  -1.81684200