17

C    2.18980600  -0.42551900  -0.70236000
O    3.51240300   0.15006000  -0.65205200
C    3.84783800   1.14323500   0.08114900
C    2.94172300   1.77787800   0.97210100
C    5.27084300   1.57250000  -0.05593300
C    5.84648500   1.99582500   1.29176200
O    5.34484900   1.06488700   2.21774700
H    2.24748200  -1.20765300  -1.46409500
H    1.46059500   0.34065300  -0.99567200
H    1.94849300  -0.86464800   0.27470000
H    1.93776200   1.39120700   1.15576700
H    3.25299500   2.67717800   1.50367800
H    5.31662800   2.39563600  -0.79140500
H    5.82385000   0.72510000  -0.48458700
H    5.54262600   3.03047800   1.54010100
H    6.94718700   1.98760800   1.23267200
H    5.71377800   1.22081800   3.09395300