17

N    0.96962900  -0.01911700   0.14119400
C    2.38432400  -0.09188100  -0.02048600
C    3.16794200   0.99597800   0.73805800
C    4.30843000   0.14075400   1.23736400
N    5.45067700   0.06827900   0.54851900
C    2.98063900  -1.28749000   0.71244300
O    3.48041600  -2.34130500   0.10969400
H    0.45717900  -0.67219100  -0.44537200
H    0.59883800   0.91642500  -0.00260400
H    2.75301700  -0.12586200  -1.07174600
H    2.57597600   1.36033700   1.58877800
H    3.48283200   1.85454000   0.12819500
H    4.39457300  -0.10254100   2.30163200
H    5.55546900   0.50274100  -0.36289900
H    6.25739400  -0.42558800   0.91692800
H    2.55723500  -1.52500600   1.69640800
H    3.66414000  -2.17894200  -0.82681900