11

N    0.94052500   0.07864000  -0.00224300
C    2.25701800  -0.00850000   0.00409500
C    3.17216400   1.08851000   0.00595900
C    4.48764000   0.66190300   0.01195300
C    4.60498200  -0.73331700   0.01302400
S    3.09059100  -1.54679700   0.00876100
H    0.48224200   0.98676000  -0.00579900
H    0.34013900  -0.74226300  -0.00352000
H    2.84533700   2.12919900   0.00492500
H    5.35252800   1.32530700   0.01457100
H    5.52807200  -1.31558400   0.01739500