12

C    0.86597700  -0.10114400   0.70951800
C    2.05584600  -0.39666300   0.03400500
C    3.25498600   0.38328500   0.19029900
O    4.40503200  -0.27507500  -0.24692400
C    5.16903600   0.49109700  -1.05628700
O    4.80688100   1.56831400  -1.42983600
H   -0.03250700  -0.70218100   0.54151300
H    0.80288800   0.73625500   1.41312900
H    2.07952200  -1.23430000  -0.67461400
H    3.38073800   0.83302800   1.19612400
H    3.15548700   1.31652300  -0.47672800
H    6.11811900  -0.01011900  -1.30891800