10

C    1.08077900   0.00825600   0.01685800
C    2.50684300   0.01119100   0.02200100
C    3.74966300   0.00685400   0.01310900
C    5.07905900   0.00368400   0.00605900
C    6.32131000   0.00035800   0.00001200
C    7.67933200  -0.00317100  -0.00680000
N    8.84704100  -0.00605000  -0.01224500
H    0.68632700   1.03513200  -0.05252600
H    0.68138500  -0.51581500   0.89965900
H    0.74932800  -0.54080900  -0.88762700