16

C    0.95099700  -0.00591900   0.01047400
C    2.39544500   0.00667400   0.01720600
C    3.62098200   0.01948700   0.03534800
C    5.01578600   0.02795300   0.08969800
N    5.79939500  -0.63900900  -0.89973900
C    5.92926900   0.72950300  -1.14009400
C    7.09254300   1.51305500  -0.63253300
H    0.56320000   0.91214000   0.47800100
H    0.59190300  -0.86241200   0.60441600
H    0.55805500  -0.09368900  -1.01202400
H    5.51039300   0.23859800   1.04452800
H    5.25170000  -1.15926700  -1.58950800
H    5.38307600   1.13711500  -2.00117100
H    7.58439200   1.02900600   0.22032300
H    6.79390400   2.53846200  -0.37703800
H    7.81620100   1.57472000  -1.46356500