15

N    1.24552000   2.93256500   2.24978700
C    2.00633500   2.46953300   1.34669900
N    3.16385300   3.20550400   1.13350100
O    4.00887800   2.84291900   0.22713700
C    5.21084100   3.63849300   0.16263300
C    5.80667500   3.74903400  -1.19083200
C    5.13293800   4.94406700  -0.57594500
H    0.39956300   2.37311200   2.38846600
H    1.90651800   1.58252600   0.70403400
H    3.34380400   4.05785700   1.68691500
H    5.81712000   3.49414400   1.06212500
H    5.28027700   3.24611500  -2.00604400
H    6.89599400   3.71342100  -1.25409000
H    5.73676900   5.76570700  -0.18392100
H    4.16599100   5.24025300  -0.99188600