15

C    1.55172000  -0.52891000   0.34874200
O    0.58615700  -1.56581500   0.08685600
C   -0.10376400  -0.73482100  -0.87900800
C   -1.34489300  -0.58214000  -0.06104900
C   -1.31726100   0.60959700   0.62873800
C   -0.12208300   1.41715200   0.29628500
C    0.77920600   0.48043200  -0.51719700
H    2.51255200  -0.84942900  -0.08822900
H    1.67640900  -0.34099100   1.42500500
H   -0.16494800  -1.17359100  -1.88205600
H   -2.08789600  -1.37654000   0.03463200
H   -2.11298200   0.94506200   1.29947100
H    0.35197100   1.87217600   1.18332300
H   -0.45266600   2.28027700  -0.31814300
H    1.34721800   0.96920900  -1.31502800