15

C    1.49993300  -0.49125900  -0.72794200
C    2.52420300  -0.30876800   0.35412500
O    3.09360800   1.09375100   0.28122400
S    4.45351900   1.36973800  -0.36165900
C    4.60950600   3.10399400  -0.23703300
O    5.57077200   0.63318200   0.28383800
O    4.56002800   0.86441300  -1.75433500
H    1.05404500  -1.48863200  -0.59881400
H    1.95269800  -0.45014300  -1.72804300
H    0.69569900   0.25215200  -0.64996000
H    3.37370700  -1.00267900   0.29048600
H    2.10867400  -0.32588500   1.36765100
H    3.77431500   3.55607400  -0.79038600
H    5.58011100   3.35649100  -0.68659100
H    4.57444300   3.36769600   0.82951000