17

C    0.47787000  -0.33526900  -0.28576600
C    1.96526100  -0.13443800  -0.37039800
N    2.69152800  -1.12800100  -0.98160400
C    2.47428100   1.27672400  -0.54984300
C    2.60065800   1.95097800   0.79229400
N    2.77356000   3.23618000   0.93426800
O    2.55200900   1.21375500   1.83578100
H    0.00839300   0.39082500   0.39419400
H    0.22890100  -1.34041700   0.08555200
H    0.00100500  -0.21728900  -1.27648000
H    2.37948200   0.28313500   1.48794200
H    3.69872100  -1.05818300  -1.06234700
H    2.33211100  -2.07524500  -0.96122000
H    1.82876100   1.89158000  -1.20397900
H    3.47797300   1.29345200  -1.00951300
H    2.81360800   3.84958600   0.12636500
H    2.87574700   3.64658100   1.86051300