16

N    1.33620700  -0.08488700   0.72328700
C    2.48990100  -0.27398500   0.07415200
C    2.58974000  -1.31524100  -1.01570100
C    3.55170800  -0.81011000  -2.05034400
C    3.77759400   0.50688400  -2.04482700
C    2.97983700   1.30373800  -1.08925600
O    3.53084500   2.27576800  -0.38291900
H    1.30152800   0.42959600   1.59797100
H    0.44518400  -0.34474500   0.31024700
H    3.38083700  -0.14529100   0.70150800
H    1.60225200  -1.52591100  -1.46424600
H    2.93114000  -2.26539300  -0.56993700
H    4.02768300  -1.49447700  -2.75476500
H    4.48224200   1.01259100  -2.71259300
H    1.94226000   1.55226200  -1.35035100
H    4.49458400   2.18778000  -0.33471200