16

N    1.10092100   0.01730600  -0.62976700
C    2.42516600  -0.11924700  -0.06721200
C    2.98115600  -1.40798800  -0.58483300
O    2.37372800  -1.93915300  -1.55395800
C    3.47872000   0.66493000  -0.80076400
C    4.67350100   1.09279900  -0.21142300
C    5.64530000   1.77650400  -0.90449400
H    0.91673100   0.94867900  -0.99819700
H    0.36595800  -0.21063100   0.03879300
H    2.51683300  -0.01719000   1.02504000
H    3.90269300  -1.87924500  -0.22630000
H    1.53475400  -1.36204300  -1.64722700
H    3.29030200   0.85867400  -1.86328900
H    4.83178600   0.89331900   0.85452400
H    5.53282800   2.00169100  -1.96860300
H    6.55174200   2.12506300  -0.40618300