12

N    1.07047000  -0.00961000   0.23615400
C    2.42915700  -0.06119900   0.11169700
C    3.03163500  -1.27218500  -0.51917800
C    3.89159100  -0.90734200  -1.46989300
O    3.94210900   0.44955900  -1.70204400
C    3.07198600   1.11436800  -0.95813800
O    2.78973800   2.24660000  -0.94521300
H    0.61957200   0.61068800   0.90797600
H    0.46350200  -0.53881400  -0.38926700
H    2.93588200   0.28652800   1.03313200
H    2.81993000  -2.29323700  -0.20297600
H    4.57229500  -1.49006700  -2.08851800