15

O    4.96814700  -0.97309100  -0.56883300
C    3.63619100  -1.21115700  -0.28362400
C    2.89954500   0.06088700  -0.18283500
C    3.52937800   1.27525300  -0.36221800
O    2.81948200   2.36551300  -0.25963300
C    3.35855300   3.60392100  -0.42119100
C    2.55101200   4.66540900  -0.29719500
H    5.45560200  -1.80014300  -0.63531000
H    3.47050100  -1.75642500   0.67324200
H    3.11379700  -1.82635100  -1.05109900
H    1.82792700   0.04217400   0.03943900
H    4.59981400   1.34979800  -0.58652100
H    4.42900500   3.63570700  -0.64379400
H    1.48873100   4.54534000  -0.07272800
H    2.95883500   5.66938900  -0.42212800