16

N    2.73422900  -1.01606100   1.23294100
C    2.54564300  -0.23619700  -0.02887500
C    2.96713800   1.22536600   0.11567500
C    4.46910900   1.53062300   0.01601400
C    5.28510700   1.03071100   1.19352400
O    5.03430800   0.04571700   1.87235700
O    6.33112700   1.74703900   1.42124000
H    2.64149000  -2.02650000   1.08674600
H    2.05611200  -0.74560900   1.95371000
H    1.48550200  -0.30395400  -0.30616900
H    3.12848900  -0.74438800  -0.80991500
H    2.54432500   1.65639500   1.03825600
H    2.48277800   1.77002100  -0.70767400
H    4.62310300   2.61420200  -0.09918900
H    4.91274400   1.06575400  -0.88143800
H    3.70497400  -0.78452900   1.61086600