15

C    1.27910900   2.25659000  -0.83618200
N    2.26496200   1.51638800  -1.11189800
N    3.05455900   0.81122600  -0.34023000
C    4.47005900   1.15319200  -0.18828400
C    4.69344500   2.64560600   0.05605400
C    6.11354900   2.90768700   0.27206000
C    7.29158200   3.10076400   0.44684500
H    0.74331900   2.72265800  -1.67038800
H    0.96046600   2.43813600   0.20120600
H    2.78205000  -0.17308400  -0.24283200
H    5.00462700   0.81595600  -1.09425000
H    4.83103700   0.54817500   0.65545000
H    4.11689500   2.97219200   0.93774500
H    4.34148500   3.23171300  -0.80900000
H    8.33990300   3.28612100   0.60428200