15

O    1.11416000   0.24833600   0.55106500
C    2.42008900   0.16505500   0.10493500
C    2.63723800   1.33773300  -0.84957800
N    3.89140900   1.17681200  -1.57395000
C    4.38174300  -0.01918600  -1.84821000
N    3.66416600  -1.09123300  -1.62731400
C    2.64286900  -1.18312000  -0.64865300
H    1.01382500  -0.16375000   1.41573300
H    3.16092300   0.23784700   0.92143800
H    2.67867500   2.27989100  -0.28775700
H    1.79395900   1.40419500  -1.55835600
H    4.35135100   1.99702000  -1.96524100
H    5.35117300  -0.10795700  -2.35215500
H    1.71359800  -1.52425700  -1.13649900
H    2.91988700  -1.97811000   0.07086600