16

O    2.09344000  -0.26808500  -1.29826900
C    2.28200000   0.13178800   0.02560900
C    3.24525700   1.30961400  -0.07442700
O    4.40599700   0.96973600  -0.70992300
C    2.55012800   2.63005900  -0.58736900
N    2.69229800   3.15276400   0.73899300
C    3.49254800   2.07418000   1.25017700
H    1.66217800  -1.12729800  -1.34214600
H    2.75902800  -0.64967300   0.64498000
H    1.34207500   0.43974600   0.52275800
H    4.18476200   0.33535900  -1.40899400
H    1.51529400   2.63910600  -0.97005900
H    3.19802200   3.17677500  -1.30223300
H    2.22712300   3.93249400   1.21631600
H    4.55167300   2.37449700   1.37830100
H    3.12645200   1.66811000   2.20958400