11

C    1.69988600  -0.60574000   0.79255300
C    2.28666200   0.10846100  -0.26042000
C    2.95945100   1.44532200  -0.07688500
C    2.48771000   2.22735700   1.06784800
N    2.07498800   2.80439200   1.97705800
C    4.28934900   0.84348900   0.12815900
N    5.25824800   0.22124400   0.28207200
H    1.10787000  -1.50417700   0.58282300
H    1.80029400  -0.27260300   1.83440500
H    2.34456100  -0.33652300  -1.26231900
H    2.95155900   2.04159600  -1.00541400