10

N    0.91096700  -0.10262100   0.00234000
C    2.14013700   0.02837800  -0.00108500
C    3.09013100   1.19526500  -0.00161600
C    4.36264200   0.75169300  -0.00632300
C    4.31029200  -0.72638600  -0.00904800
N    3.08942600  -1.08005800  -0.00612800
H    0.34735700   0.75185200   0.00573300
H    2.72373500   2.22264300   0.00149800
H    5.28692800   1.32909400  -0.00797300
H    5.14319400  -1.44013000  -0.01294800