15

C    1.70391600  -0.17788900   0.17497200
C    0.93514400  -1.43878000   0.61218300
C   -0.21046600  -1.08528000  -0.44206700
C   -1.42718900  -0.52075000   0.14862800
C   -1.31852100   0.87361900   0.10485900
O   -0.22170700   1.28239500  -0.43838900
C    0.59866400   0.15412800  -0.84834600
H    2.67172900  -0.37041200  -0.30472700
H    1.83908900   0.59581200   0.94180500
H    1.41669200  -2.39003500   0.35623200
H    0.60312000  -1.47240800   1.65691200
H   -0.39038100  -1.87925400  -1.18222500
H   -2.26483300  -1.07054800   0.58102400
H   -2.01368800   1.63843400   0.46087600
H    0.88449200   0.33221200  -1.89251700