16

C    0.94572500  -0.07862000  -0.10641900
C    2.41306600   0.12091300   0.01815900
C    3.14321000   1.25088900  -0.25147200
C    4.57611600   1.06859900   0.11880300
N    4.64508300  -0.28355100   0.64608500
C    4.57237800  -1.33344400  -0.28371700
C    3.32731600  -0.86535000   0.57955500
H    0.72399600  -0.98535300  -0.68881500
H    0.46446700   0.78217500  -0.58568200
H    0.49637000  -0.21554200   0.89033400
H    2.73409600   2.20314000  -0.59479800
H    5.30582700   1.22338900  -0.69180900
H    4.84623300   1.78448500   0.92311100
H    4.91702300  -2.32233500   0.03558100
H    4.63761000  -1.09683800  -1.35264100
H    3.01423300  -1.62012700   1.30859600