10

C    1.90208200   0.38695200   0.57095900
O    1.59785200   0.53757800  -0.92802300
C    2.49295900   1.46017000  -0.95543800
N    3.11601800   2.35216900  -1.80104100
O    3.94269300   2.93990400  -0.97922400
C    3.86708600   2.45053900   0.36148600
C    2.92971200   1.49748900   0.37069000
H    2.28168800  -0.62648200   0.74937800
H    0.99566800   0.63199100   1.13778800
H    4.56000100   2.94423300   1.04244500