17

N    1.10755400   0.63298200   0.60163700
C    2.40052400   0.43492200   0.52974400
N    3.08288100   1.25156600  -0.27522900
C    4.51672100   1.27461300  -0.49302000
C    5.05525600   2.64625200  -0.15379400
C    6.26302200   3.15640200  -0.89833400
C    4.92679100   3.77767100  -1.14834600
H    0.64422600  -0.04635200   1.21641800
H    2.97778400  -0.33548000   1.06151800
H    2.51956400   1.97576300  -0.74103600
H    4.68302300   1.05126400  -1.56203500
H    4.97302100   0.47176800   0.10286800
H    4.98021100   2.89944600   0.90802700
H    6.69194300   2.52239800  -1.67863200
H    7.00051000   3.71108000  -0.31536300
H    4.72742200   4.77521400  -0.75225200
H    4.44729300   3.57270000  -2.11086800