14

C    0.94210700  -0.13575400   0.00288000
C    2.46349000   0.02435100   0.00048300
C    2.95913900   1.37212900   0.00046300
C    3.39224200   2.53477800   0.00056100
C    3.89900100   3.81844400  -0.00067700
C    3.06957400   4.92608300   0.00035700
H    0.69388300  -1.20452100   0.00254300
H    0.49424300   0.32133900  -0.88947100
H    0.49718100   0.32008500   0.89733900
H    2.93737100  -0.47443900  -0.86994300
H    2.94028800  -0.47569400   0.86858500
H    4.98810500   3.94513100  -0.00227100
H    1.98096100   4.81912600   0.00209400
H    3.49232200   5.93458400  -0.00045200