15

C    1.10329500  -0.12618400   0.21864400
N    2.40018800   0.34668100   0.55101400
C    2.98062900   1.43375800   0.04454700
N    2.52977600   2.67581100   0.12127500
C    3.58047500   3.62353700  -0.25885100
C    4.58384500   2.66694100  -0.92458200
O    4.15950800   1.34683300  -0.48739100
H    1.24137700  -1.01039100  -0.43950500
H    0.48197300   0.60208900  -0.32886500
H    0.60419800  -0.50418800   1.12257900
H    1.66424000   2.93561600   0.58379800
H    3.19222700   4.37947900  -0.95310400
H    3.98510400   4.12462400   0.63269000
H    4.53283100   2.67652400  -2.02113100
H    5.62038600   2.80384000  -0.59888900