13

N    1.05001000  -0.10078100  -0.21472000
C    2.43477400   0.02053700  -0.05192000
C    3.00356900   1.33305200  -0.02380000
C    3.51504000   2.44608900   0.00437400
C    4.13163500   3.70174700   0.04081600
N    3.36719600   4.75217800  -0.08252000
O    4.05514400   5.86812900  -0.03324600
H    0.62484700  -1.02124700  -0.23903200
H    0.44258200   0.70633600  -0.30776200
H    2.98601300  -0.55950200  -0.83642700
H    2.78018100  -0.50554000   0.87554200
H    5.21926900   3.78897100   0.16906300
H    3.41150500   6.58754100  -0.13215000