15

C   -1.55978800   0.64039900  -0.07940700
C   -1.14346200  -0.80020100  -0.26457700
C   -0.37616800  -1.49848000   0.81327800
C    0.33385000  -1.08450900  -0.44311700
O    1.23889100  -0.00478000  -0.35584600
C    0.89049300   1.17364100   0.02539400
C   -0.44137900   1.54828000   0.22808000
H   -2.05159900   1.03836400  -0.99055200
H   -2.33867400   0.73789600   0.70062300
H   -1.81166400  -1.40468200  -0.88271200
H   -0.13003700  -0.93924800   1.72282800
H   -0.51929400  -2.57104400   0.95898900
H    0.72403100  -1.81487900  -1.15127800
H    1.72851200   1.87100200   0.11824600
H   -0.63566000   2.57883200   0.53691100