13

C    2.98114100  -1.24597900   0.53343500
O    2.41456700   0.05665300   0.28267000
C    3.13195700   1.10990000   0.20044000
C    2.57660700   2.40414400  -0.04794300
C    3.55543200   3.37546500  -0.09125200
C    4.84324800   2.85746000   0.11741200
S    4.87507200   1.15147600   0.37301600
H    2.13564300  -1.93890900   0.54943300
H    3.49009900  -1.23714500   1.50783400
H    3.67323800  -1.50192100  -0.28146700
H    1.50407900   2.55005300  -0.17949600
H    3.37151700   4.43557000  -0.26691400
H    5.78051200   3.41756800   0.13066200