15

C    1.09256900  -0.01362900   0.09060100
C    2.58148200   0.04756900   0.02778100
O    3.12284000   1.08792100   0.73736800
C    4.39528600   0.71768200   1.18140000
C    4.23127400  -0.76957600   1.35303500
C    5.04743100  -1.68649200   2.04824900
O    3.19623200  -1.16494100   0.72960000
H    0.72514500  -0.91542500  -0.41498100
H    0.69416400   0.86694200  -0.43219500
H    0.75168400   0.00738800   1.13377200
H    2.99541900  -0.05349600  -0.99332100
H    5.19791600   0.90905300   0.43813800
H    4.64512000   1.24521300   2.11281400
H    4.77488400  -2.74491600   2.06670400
H    5.94400600  -1.34110200   2.56738100