15

C    0.94769000  -0.01579000   0.00726100
C    2.48341400   0.06601000  -0.09357200
C    3.09474200  -0.78054200  -1.22698300
C    2.97236600   1.41064100  -0.07587200
C    3.41365500   2.57464600  -0.02872400
C    3.88563100   3.82391900   0.01875700
C    4.32126400   4.97742400   0.06258100
H    0.55997300   0.56826400   0.85206800
H    0.66271400  -1.06651400   0.14778800
H    0.48727600   0.34686800  -0.92230500
H    2.90476900  -0.31140300   0.87357300
H    2.71026500  -0.44481500  -2.20015400
H    2.79796600  -1.82708800  -1.07984400
H    4.19111200  -0.72525500  -1.23524200
H    4.70338600   5.98932200   0.10099100