13

C    0.93600800  -0.00905400   0.00376500
C    2.42789500   0.00496700   0.00264900
C    3.19689000   1.18528000   0.00321300
N    4.50911300   1.13684500   0.00330100
C    5.25942800   0.04965500   0.00272700
N    4.54381600  -1.05729900   0.00196100
C    3.23166600  -1.14882900   0.00178600
H    0.54793200  -1.03508600  -0.01188700
H    0.54452900   0.52148100  -0.87677600
H    0.54686200   0.49307500   0.90198400
H    2.73464100   2.18063800   0.00342600
H    6.35097600   0.06721300   0.00286200
H    2.80201100  -2.15818700   0.00077900