13

C   -1.44451400   0.64335900   0.12186900
C   -1.45044400  -0.84702700  -0.22989000
C   -0.26408900  -1.61075800   0.26767500
N    0.86780700  -1.03022100   0.34089600
N    1.35667100   0.08082200   0.02975800
C    0.84600000   1.19110400  -0.39725900
O   -0.41785800   1.42966400  -0.52135300
H   -2.37776600   1.10922300  -0.20936000
H   -1.34270700   0.79616300   1.20636000
H   -1.51222300  -0.97917500  -1.32518200
H   -2.36568200  -1.29558600   0.18475600
H   -0.31883200  -2.65932200   0.57787200
H    1.51490900   2.00267500  -0.69920300