17

C    0.89896000  -0.04172300  -0.12774300
C    2.43615700   0.05850800  -0.08840000
C    3.16605300  -0.88398700  -1.06083500
C    2.90629300   1.41031300  -0.14602700
C    3.31865500   2.58370000  -0.15631500
C    3.82557200   3.92252400  -0.18911900
O    2.95496700   4.85611400   0.29168900
H    0.42508800   0.62015800   0.60882600
H    0.60894200  -1.07724700   0.09205900
H    0.53111700   0.21681500  -1.13069900
H    2.75442400  -0.21970600   0.95130800
H    2.88025400  -0.65277200  -2.09677900
H    2.86619500  -1.91717200  -0.84303600
H    4.25730100  -0.80963800  -0.96540000
H    4.14988700   4.09157800  -1.25024100
H    4.80913200   3.88237300   0.35023800
H    3.34493600   5.73807200   0.24307500