16

C    2.11177900  -0.59982900   1.14926700
C    2.80439000  -0.11766500  -0.15265600
C    3.14348100   1.30742100  -0.05227300
C    4.43774600   1.81583700  -0.11279100
C    4.74664400   3.27925100  -0.06969400
O    4.89514900   3.29934200   1.33733000
H    1.83997500  -1.65576000   1.02091000
H    1.19457900  -0.03040100   1.35427100
H    2.78702200  -0.51763700   2.01137300
H    2.08142800  -0.23769200  -0.98053100
H    3.69077900  -0.72694300  -0.37730700
H    2.31107500   2.01464600   0.07415800
H    5.29095500   1.12975200  -0.06406900
H    3.94564700   3.93242800  -0.44225900
H    5.70248300   3.53701400  -0.53842300
H    4.07484800   3.57437800   1.77474100