14

C    1.43201200  -0.33669100  -0.15449500
O    2.78327500   0.09523300  -0.21169400
C    2.98993800   1.46478900  -0.11796700
C    4.50187800   1.64692800   0.07466600
N    5.18831500   0.56598500  -0.50354400
H    1.44005800  -1.42853200  -0.24022400
H    0.85066600   0.09226000  -0.98621800
H    0.97342900  -0.04689700   0.80477600
H    2.44412300   1.92011400   0.72648500
H    2.68139900   1.99011600  -1.04283400
H    4.74129500   1.61260800   1.16950800
H    4.90867800   2.61117300  -0.27305700
H    4.62847300  -0.29343800  -0.63527100
H    6.18583300   0.58961700  -0.72846100