19

C    2.39171200  -0.72807800  -0.94455700
N    3.35434800  -0.01333700  -0.16240600
C    3.44471500   1.37196400  -0.02168500
C    2.40856200   1.92293500   1.10966700
N    2.84200100   1.68617700   2.43846200
C    4.88781300   1.72025300   0.42422900
O    5.30300900   0.79138300   1.37184900
H    1.65071200  -1.21121200  -0.28110200
H    2.89381300  -1.53023100  -1.50736700
H    1.87549000  -0.05035100  -1.63491700
H    4.01860800  -0.52470500   0.43567500
H    3.12377800   1.86790600  -0.95168500
H    1.42912200   1.47997100   0.87211000
H    2.36368000   2.99958600   0.89370800
H    2.34601400   0.95815500   2.94348000
H    2.93632500   2.51750300   3.01384600
H    4.91239000   2.76053600   0.78997300
H    5.55889500   1.65077800  -0.44373700
H    4.84224900   1.00719900   2.19885100