15

O    1.12595800  -0.00454300   0.41304200
C    2.46034400   0.00398200   0.12492800
C    2.84275200  -1.30699100  -0.54124100
C    2.60622400  -0.99144000  -2.02704500
O    3.68460700  -0.28521100  -2.60764800
C    2.57703100   0.45982300  -2.21918800
C    2.83071200   1.17186700  -0.87076100
H    0.83797300   0.82630500   0.81671400
H    3.08637200   0.20279000   1.03139800
H    2.19495500  -2.12879100  -0.21010300
H    3.89201100  -1.58217100  -0.36930400
H    2.12826700  -1.72339500  -2.68865700
H    2.06520700   1.01806400  -3.01584600
H    3.88804000   1.45204800  -0.75593300
H    2.20508200   2.06829300  -0.76228200