12

N    0.97106300   0.05196500  -0.00447800
C    2.29201800  -0.05977300   0.00084500
C    3.20779800   1.04620400   0.00353300
O    4.45572500   0.58709500   0.00854900
C    4.39377000  -0.76497400   0.00921200
O    5.55416400  -1.32453200   0.01398400
C    3.09328400  -1.22493100   0.00461800
H    0.51265300   0.95658200  -0.00599800
H    0.37642300  -0.76979300  -0.00568400
H    3.05898700   2.12453000   0.00227600
H    5.50943500  -2.29154400   0.01436600
H    2.76757700  -2.26154600   0.00412600