15

N    0.96349700  -0.04368400   0.00179700
C    2.11654300  -0.01443300  -0.03034900
C    3.57695400   0.01215600  -0.03830400
C    4.19307600   1.14510000   0.81399700
C    5.59302900   0.62007600   1.13149300
N    5.44517000  -0.80640100   1.09966800
C    4.19959200  -1.26415900   0.56455900
H    3.91052600   0.10727400  -1.08533200
H    3.62005700   1.28326000   1.74283500
H    4.21506500   2.10446100   0.28384200
H    6.34586800   0.88626400   0.35599300
H    6.03197800   0.93667900   2.09327200
H    6.17059200  -1.44911900   1.43490300
H    4.35797000  -2.10556800  -0.13159400
H    3.59668800  -1.67146700   1.40687500