12

O    1.31210500  -0.21680200   0.77070100
C    2.35211200  -0.01754100   0.26002200
C    3.11064900   1.25996200  -0.05786600
C    4.41510300   0.85341500  -0.73045100
C    4.32279300  -0.68107600  -0.75801900
O    5.20491100  -1.39750600  -1.23390400
N    3.19722500  -1.11202200  -0.21550800
H    3.26874700   1.80471800   0.88470900
H    2.47342800   1.88162200  -0.70414500
H    4.53053000   1.19747100  -1.76917700
H    5.32767300   1.12099700  -0.17705700
H    2.92933900  -2.09602900  -0.12875300