17

C    1.10806800   1.20319300  -0.29642300
C   -0.19421000   1.53953300   0.43319600
C   -1.38862000   0.85009200  -0.14332700
C   -1.51553100  -0.49803300  -0.26865600
C   -0.52417900  -1.51382800   0.13149400
C    0.92816400  -1.30379700   0.19230500
C    1.64146000  -0.15917900  -0.09139500
H    1.88540000   1.93239500  -0.00932100
H    1.02365900   1.34645500  -1.39761700
H   -0.08983400   1.26384100   1.49989700
H   -0.34773300   2.62590900   0.41423400
H   -2.23730100   1.46614900  -0.45576400
H   -2.47102800  -0.89534700  -0.62301400
H   -0.71358100  -2.47577200  -0.38643800
H   -0.80652400  -1.83107100   1.17606200
H    1.50466200  -2.20384200   0.43044300
H    2.72072700  -0.28876700  -0.23592500