14

C    1.05362900   0.37737300  -0.15598100
N    2.34605500   0.93545900  -0.34109700
C    3.35290200   0.45754100   0.36796600
N    4.54015500   0.98533900   0.18366100
C    5.93259400   1.03849100   0.49709100
C    5.30877900   1.95639100  -0.52340300
H    0.69030800   0.03366400  -1.14251500
H    0.36421800   1.20200000   0.10476600
H    0.98285900  -0.43447400   0.58581300
H    3.27832500  -0.35526900   1.10849700
H    6.52790900   0.18375100   0.15714400
H    6.18028600   1.42949700   1.49022300
H    5.10942100   3.00007000  -0.25727500
H    5.45698000   1.75479300  -1.58981100