15

C    0.84889100   0.19077700   0.01140600
C    2.35903000  -0.00133500  -0.01130600
C    3.19796400   0.85478200   0.96053000
O    3.51266700  -0.33928500   1.74071900
C    2.88138600  -1.14033700   0.85815400
C    4.03646900  -2.14344700   0.13477100
O    4.01280500  -2.30437900  -1.01771300
H    0.34944200  -0.60409900  -0.55922700
H    0.59383800   1.15139000  -0.45732100
H    0.45265800   0.19131300   1.03760600
H    2.73812300  -0.01115000  -1.04260300
H    2.65090800   1.56334200   1.60064600
H    4.12237400   1.31876900   0.58599100
H    2.25751800  -1.94417500   1.30221500
H    4.72217300  -2.58509400   0.89383000