19

C    1.30454500   1.41897900   0.02910000
O    2.68856600   1.45402300   0.32026600
C    3.51000500   1.36868100  -0.77363000
C    4.90445200   1.13027500  -0.35600100
C    6.08548300   1.55076600  -1.13004100
C    5.94233600   2.62005900  -0.10715700
C    6.68369700   2.66868800   1.16182700
H    0.77484400   1.51802200   0.98274200
H    1.02048300   0.46342100  -0.44411700
H    1.01530400   2.25315300  -0.63306300
H    3.42422600   2.23343600  -1.46790100
H    3.28859900   0.47162000  -1.41449400
H    5.03760400   0.50177000   0.53213900
H    5.87653800   1.87535800  -2.15682300
H    6.97232000   0.91827400  -1.00736800
H    5.33139200   3.49030100  -0.37257800
H    7.20463300   1.73316200   1.40205000
H    6.03275700   2.97840900   1.99548400
H    7.43794100   3.47497300   1.06260700