16

N    2.57273100  -0.52737500  -1.27512700
C    2.95096100  -0.63420400   0.10424000
C    2.77861800   0.83214300   0.40427700
C    3.79044600   1.73685400   0.24722000
C    3.66949800   3.19292500   0.55198900
C    4.81142800   3.68786200   1.31902800
C    5.75941400   4.07781600   1.95553200
H    1.59221400  -0.48093000  -1.54984800
H    3.25912400  -0.29536900  -1.99159500
H    3.98199800  -0.99254500   0.20644600
H    2.26615900  -1.28116800   0.66411600
H    1.77405200   1.16618100   0.68589200
H    4.77524500   1.39096800  -0.09315200
H    2.71962800   3.41677800   1.06307900
H    3.63020800   3.72343600  -0.42185100
H    6.59837600   4.43963900   2.52410300