18

C    0.40888600   0.24544700  -0.35913100
C    0.53763400  -0.16755900   1.10573600
C    0.81528700   0.85863700   2.17336600
C   -0.55281200   0.26211400   2.05561800
N    1.72214500   0.37255000  -0.92501800
C    2.95298000   1.02217000  -0.63267000
C    2.89556600  -0.41277200  -1.09599000
H   -0.13822000  -0.50982500  -0.94029600
H   -0.08621500   1.22364100  -0.44444500
H    0.94473200  -1.17367300   1.24527300
H    0.92688500   1.90474100   1.87192300
H    1.44964900   0.56031000   3.01072700
H   -0.87620900  -0.47656800   2.79161800
H   -1.35649300   0.89389300   1.66952800
H    3.11590100   1.27152900   0.42264200
H    3.27703700   1.77907600  -1.35803200
H    3.17935300  -0.62577100  -2.13438400
H    3.02216800  -1.24354200  -0.39156800