13

C    0.93126700   0.07850400  -0.00482100
C    2.41646400   0.00516400  -0.00120700
N    3.16824500   1.05641300  -0.00012000
O    4.50320800   0.61683100   0.00276600
C    4.56725800  -0.67364000   0.00354600
C    3.25113500  -1.19422800   0.00106900
N    2.85943000  -2.45709800   0.00084300
H    0.61606600   1.12886200  -0.00034100
H    0.51636400  -0.41530200   0.88681000
H    0.52159200  -0.40590800  -0.90403600
H    5.55139100  -1.14515900   0.00586400
H    3.52291500  -3.22909000   0.00257200
H    1.86966100  -2.69591500  -0.00123700