17

C    0.82136300   0.18132100  -0.17804800
C    2.27060800  -0.09722500  -0.53368000
N    3.14431600   0.45995500   0.49985100
N    4.45805800   0.40741100   0.52157600
C    5.15451700   1.02712300   1.64756900
C    5.20543100  -0.23581800  -0.52184600
O    6.39192500  -0.26698600  -0.47439100
H    0.17686200  -0.24078700  -0.95948800
H    0.61909700   1.26084000  -0.12707600
H    0.54210900  -0.29106000   0.77470900
H    2.53563800   0.36265300  -1.50016300
H    2.45901600  -1.18144000  -0.60297100
H    2.72235900   0.94267600   1.29441400
H    4.92682400   2.10220100   1.67496600
H    6.22802100   0.88119400   1.48762200
H    4.84955800   0.53805300   2.58362600
H    4.58012800  -0.66976500  -1.32203300