17

C    1.34754200   1.90354300   1.40877200
O    2.72757800   1.76257100   1.12087200
C    3.05061400   1.10864500  -0.08134000
C    4.52859600   1.38571900  -0.30270100
C    4.72411100   2.89391500  -0.08232700
N    5.97243000   3.30168200   0.33576900
H    1.26654500   2.46679400   2.34515500
H    0.88752500   0.91179900   1.54438000
H    0.82539800   2.44127400   0.60008300
H    2.43862300   1.50041000  -0.91547100
H    2.86383100   0.02431900  -0.00021000
H    4.86308700   1.08881800  -1.30736400
H    5.12225000   0.82779800   0.43839100
H    3.95180800   3.01459300   0.78822100
H    4.34104900   3.54188400  -0.88533700
H    6.54549800   2.71052400   0.93904300
H    6.33042300   4.23509000   0.13457200