17

C    1.18382900   0.00004900   0.36467200
N    2.42322300  -0.51575700  -0.20017300
C    2.58694400  -1.94900600  -0.40061800
N    3.11216300   0.28792600  -0.98401900
C    4.16657700   0.94313500  -0.71589600
C    4.80970600   1.80742200  -1.73758400
O    4.09611400   1.75474700  -2.91459500
H    1.31783500   1.05457900   0.63297400
H    0.93634400  -0.59267800   1.25400800
H    0.37052500  -0.09085600  -0.37395000
H    2.28421000  -2.46350200   0.51979000
H    3.63622600  -2.16603800  -0.63271000
H    1.94892800  -2.28474100  -1.23458900
H    4.62415900   0.88074200   0.28463600
H    5.85983400   1.45248100  -1.82007300
H    4.87419000   2.82003200  -1.28372000
H    4.51160500   2.31431400  -3.57795900