13

C    0.92596000   0.00735600  -0.00440700
C    2.41479500   0.05719700  -0.00065200
N    3.07202700   1.17075700   0.00080200
S    4.73148700   0.90683600   0.00433700
C    4.64277900  -0.76119000   0.00423200
C    3.28127000  -1.14443600   0.00121100
N    2.81914600  -2.38579800   0.00001000
H    0.52691200   1.02812600  -0.00078800
H    0.54881400  -0.51865200   0.88707600
H    0.55359700  -0.51021700  -0.90285800
H    5.51714400  -1.41399600   0.00624100
H    3.44017200  -3.19117400   0.00123200
H    1.81895500  -2.57174500  -0.00228600