15

C    1.05483400   0.06452400   0.21667500
C    2.36572800  -0.07931300  -0.29133100
O    2.66646500  -1.17146800  -0.91399500
C    4.09309300  -1.24563200  -1.21732300
C    4.63555800   0.12290600  -0.87111100
C    4.02839200   1.25932200  -1.58783600
C    3.46615400   0.86273700  -0.20996700
H    0.77572800   0.97162700   0.75514800
H    0.32623500  -0.73600300   0.06850700
H    4.49664600  -2.05761200  -0.59750600
H    4.17399700  -1.51794200  -2.27796400
H    5.63702300   0.19924400  -0.44354200
H    4.56075000   2.21207400  -1.58832900
H    3.40317500   1.07831300  -2.46746400
H    3.54031500   1.55731200   0.62778100