16

C    0.63495100   0.10210600   0.19520100
C    2.09047100  -0.06788300   0.16999600
C    2.99675200   0.92255000  -0.19381300
C    4.43464200   0.76726100  -0.11343400
C    5.06349600   0.91405500  -1.59396900
N    5.91999800  -0.05764600  -1.91312000
O    4.73495300   1.85231800  -2.26107300
H    0.17401000  -0.66105400  -0.46088900
H    0.30160500   1.10318100  -0.10304800
H    0.25022500  -0.14032700   1.20304600
H    2.49161100  -1.04617600   0.46663600
H    2.61400400   1.87075100  -0.59173600
H    4.75154200  -0.17030400   0.36192600
H    4.90669900   1.63412700   0.38186000
H    6.18176700  -0.79581800  -1.27393800
H    6.38734300  -0.00808300  -2.81423000