17

O    1.72710200  -0.26632600   0.57411400
C    2.92047000  -0.03466400  -0.08324500
C    3.16219500   1.42525600  -0.13617400
C    4.38024900   2.00671200  -0.44851900
C    4.58430200   3.47565000  -0.55659900
C    4.77503400   3.37576700   0.92577400
C    5.97289100   3.06937300   1.52544400
H    1.46212700  -1.18610700   0.47701400
H    2.91837300  -0.38858300  -1.14140900
H    3.79611500  -0.53226500   0.38788700
H    2.28808200   2.05891600   0.06104200
H    5.25248800   1.36312400  -0.60655400
H    3.70183300   4.05429100  -0.84686400
H    5.47699100   3.76148200  -1.12141900
H    3.89415900   3.54606500   1.55241400
H    6.87447400   2.87200300   0.93770400
H    6.05917800   3.04106400   2.61436700