16

C    0.86134700  -0.31041400   0.18387100
C    2.35029700  -0.01297400   0.09622800
N    2.95458100   0.70021200   1.22782500
C    2.58852700   1.91260500   1.87734500
C    3.97583900  -0.28845600   1.53323000
C    3.38561500  -1.12966700   0.37799400
O    3.60458900  -2.19243100  -0.07944800
H    0.60409900  -0.96396400  -0.66103200
H    0.26557300   0.60873200   0.09929200
H    0.60996200  -0.83304600   1.11685500
H    2.58927800   0.53387200  -0.83944700
H    2.12341000   2.59949700   1.15690600
H    3.46684700   2.36440800   2.35816200
H    1.84345500   1.68174000   2.66533000
H    5.00557000   0.09770400   1.42213100
H    3.86659600  -0.72129900   2.54555100