15

O    3.85939600  -1.08108100   0.92251500
C    2.86608300  -0.46174500   0.17202500
C    3.11460700   1.04317400   0.25972000
C    3.28785000   1.59348300   1.60084600
C    2.97784400   2.88480600   1.91182600
C    4.62038500   1.20504600  -0.39986000
O    4.89369500   2.10092200  -1.09751300
H    3.83994200  -2.03839100   0.80986300
H    1.84914100  -0.63059400   0.57850900
H    2.85471600  -0.78545800  -0.88453200
H    2.45508200   1.63639600  -0.38876000
H    3.70733300   0.92615100   2.36161900
H    2.63173600   3.59349400   1.15235500
H    3.05644700   3.24654200   2.94045200
H    5.24943400   0.33416800  -0.08331800