17

C    0.84042200   0.03215400   0.31733900
C    2.29262200   0.25725800   0.01234000
C    3.14038700   1.19123900   0.89043400
C    4.08849000  -0.00109800   1.03521500
O    3.17514400  -0.86957300   0.30545300
C    2.74827800   0.22780200  -1.43121900
C    2.26856500  -0.66097300  -2.35199700
H    0.70467300  -0.13392500   1.39429200
H    0.43174200  -0.83104300  -0.22361100
H    0.27668600   0.93174100   0.02919400
H    2.63574000   1.47710000   1.82109000
H    3.53953700   2.08840900   0.40213300
H    5.06877600   0.04293700   0.53913300
H    4.21402800  -0.42993800   2.04176900
H    3.58467400   0.88354800  -1.69655200
H    1.54951800  -1.44248700  -2.09138500
H    2.59171900  -0.59889100  -3.39507700