22

C    2.23907000  -0.53014100  -1.54649700
C    3.35016000   0.47381600  -1.25955100
C    2.87021900   1.61735300  -0.36545600
C    4.01344100   2.62297900  -0.09004400
N    3.55528300   3.70837300   0.73965500
C    3.41008300   3.53572700   2.16063100
C    3.16881500   4.95414100   0.13019600
H    2.60901000  -1.33978100  -2.19015900
H    1.39114500  -0.05474900  -2.06214900
H    1.86089700  -0.98683900  -0.61953000
H    3.73432600   0.88803800  -2.20634100
H    4.19955700  -0.03524000  -0.77471700
H    2.49785200   1.21878000   0.59239400
H    2.03259300   2.14989800  -0.84521100
H    4.38804300   3.04086300  -1.03510000
H    4.83857400   2.11322300   0.43165000
H    3.81969200   2.57037200   2.47690800
H    2.34002100   3.59704300   2.42673100
H    3.92739700   4.35937800   2.68054300
H    2.58797800   5.56627800   0.82950300
H    2.58983100   4.75369700  -0.78432000
H    4.08304700   5.50113200  -0.16470600