14

C    1.38145200   0.04952800   0.49742400
C    2.74920300  -0.04928700  -0.11502800
C    3.45496600   1.05165700  -0.83422400
C    4.06979100   0.30595400   0.47114300
C    4.90134100  -0.78946800   0.08715200
N    4.24620900  -1.68096900  -0.65609400
O    3.00826800  -1.28129900  -0.79092200
H    1.26279600   1.03244000   0.97064600
H    1.25278100  -0.73369800   1.25556000
H    0.61939300  -0.06241800  -0.28519700
H    3.14323100   2.08006500  -0.63634900
H    3.94073600   0.85679400  -1.79467500
H    4.25960600   0.94953400   1.33245600
H    5.95122200  -0.97171400   0.32742800