17

C    1.31748500   0.10443400   0.40387900
N    2.43897100  -0.23376200  -0.46046100
C    2.59258100  -1.61052800  -0.96717800
C    1.46522000  -1.98574600  -1.89321900
C    0.59258800  -2.95390600  -1.62089100
N    2.95767200   0.73638700  -1.19356400
C    3.99511800   1.41854400  -0.95141700
H    1.52152500   1.05597100   0.91016500
H    1.19657000  -0.70379500   1.13544800
H    0.39697800   0.18949500  -0.19606700
H    2.61917400  -2.26171200  -0.08095500
H    3.56913500  -1.65465500  -1.47047700
H    1.41035900  -1.42447300  -2.83218800
H    0.63799800  -3.53499600  -0.69443500
H   -0.19364500  -3.21724800  -2.33203400
H    4.27251300   2.19338200  -1.67342300
H    4.61146500   1.25447000  -0.05514700