12

C    1.09139800  -0.04111900   0.20191300
C    2.46207400   0.05341100  -0.15092500
N    3.17613000   1.16527900  -0.31403900
C    4.53185100   0.83938300  -0.67117600
O    5.39597900   1.61443800  -0.87971600
C    4.51640300  -0.67936000  -0.69680800
O    3.16353100  -1.02313000  -0.35342000
H    0.64541100  -1.03295900   0.29799500
H    0.49952600   0.85937500   0.37260600
H    2.83391400   2.11933700  -0.20690300
H    4.74692400  -1.08366600  -1.69342700
H    5.19743500  -1.11761900   0.04748900