13

N    1.37877200   0.19264300   0.49485700
C    2.47896500  -0.08508800  -0.18681100
O    2.63015200  -1.22483400  -0.75996700
C    3.99332000  -1.32805200  -1.28617800
C    4.59980800   0.01947500  -0.92112200
C    4.00510900   1.24903200  -1.48835700
N    3.56031500   0.73629800  -0.15891400
H    0.89132400   1.08954300   0.38045100
H    4.47502500  -2.16586500  -0.76812100
H    3.91431800  -1.53968100  -2.35972800
H    5.60636200   0.04502100  -0.49597900
H    4.55139700   2.19208000  -1.42553200
H    3.29278500   1.16245900  -2.31604700