19

C    1.09660600  -0.19807100   0.01932800
C    2.59739000  -0.06390100   0.01597600
C    3.01093200   1.65277700  -0.00204400
C    2.46845300   2.24733900  -1.29704900
C    2.46868400   2.27444800   1.28024500
C    4.40150300   1.43181900   0.00005600
C    5.61142600   1.18040600   0.00236400
H    0.92179700  -1.29004500   0.02989600
H    0.61894100   0.19964900  -0.88396900
H    0.62149600   0.21661100   0.91631700
H    3.06357500  -0.48545400  -0.88275200
H    3.06583300  -0.46747300   0.92175900
H    2.80555800   1.69565700  -2.18490100
H    2.82951300   3.28421400  -1.37925500
H    1.37212700   2.27538700  -1.27597400
H    2.80531500   1.74109600   2.17941300
H    1.37238100   2.30267600   1.25838800
H    2.83041400   3.31256900   1.34098300
H    6.67470100   0.98381700   0.00399800