16

N    0.73566300   0.18157200   0.08673100
C    1.99285600   0.39905700  -0.16379400
C    2.93676400   0.80855900   0.91862900
C    4.15338500  -0.13174500   0.99919300
C    3.76993400  -1.54766600   1.25089100
C    2.46245000   0.25558300  -1.49383500
C    2.88950400   0.14825100  -2.62135600
H    0.36890000   0.27450000   1.03240900
H    0.08470500  -0.09050700  -0.64862400
H    2.40020900   0.84313300   1.87919500
H    3.26581600   1.83551600   0.68221800
H    4.75309000  -0.04389100   0.07903800
H    4.80301100   0.25546400   1.80859300
H    4.44705100  -2.35754500   0.97308600
H    2.95466200  -1.78660400   1.94126900
H    3.26566400   0.05158400  -3.62895300