17

C    1.28250500   2.78997600   0.08932600
C    2.52926500   2.33766100  -0.36640900
O    3.39948600   1.96524800   0.48312000
C    4.72286500   1.48087300   0.09039700
C    5.88967400   2.16177200   0.80998800
C    6.51922800   0.75565000   0.95920700
C    5.12065500   0.14010500   0.71248400
H    0.52410800   3.11344500  -0.62682800
H    1.07137400   2.81816200   1.16213900
H    2.77824400   2.29492600  -1.43714000
H    4.77572500   1.51374000  -1.00817000
H    5.56495200   2.56551300   1.77953500
H    6.42890100   2.93806900   0.25185000
H    7.22562400   0.52597800   0.15054500
H    6.99568400   0.52809000   1.91976300
H    5.02677600  -0.74792700   0.07412200
H    4.57900800  -0.02621900   1.65451900