16

C    0.92845200  -0.03986100   0.21972800
C    2.36267000   0.16369300  -0.14067500
C    2.76526800   0.03119700  -1.57215800
C    3.20685900   1.08457400   0.76087100
N    3.88453200  -0.03718600   1.40783000
C    3.35999700  -1.08762700   0.82916700
O    3.30792800  -2.25071400   0.72900000
H    0.75887400  -0.07659900   1.30515300
H    0.50873600  -0.93474400  -0.25870100
H    0.37297800   0.83635200  -0.16780500
H    3.85500800   0.04481600  -1.71544800
H    2.35517400   0.91198300  -2.10364400
H    2.33432400  -0.86525400  -2.03751800
H    2.61062900   1.67706600   1.46848900
H    3.90222700   1.72906800   0.20553300
H    4.59931900  -0.04776200   2.13781700