15

C    1.02558400   0.00726400   0.18863900
N    2.45858300   0.00991800  -0.04454200
O    3.05444100   1.10346000   0.36651300
C    4.41348600   1.26779600  -0.11881300
C    5.18358000  -0.01101300   0.13174600
N    4.46371300  -1.16119800  -0.34074400
C    3.19160400  -1.08462400  -0.46867400
H    0.59052700   0.88322400  -0.31124600
H    0.83990400   0.06811500   1.27134600
H    0.60729500  -0.91998500  -0.21745700
H    4.78990000   2.13721300   0.42957200
H    4.34570000   1.50103300  -1.19348500
H    5.40192700  -0.17891000   1.20252200
H    6.16389800   0.03067100  -0.36787100
H    2.58982800  -1.91479700  -0.85252700