15

C    1.09626100   1.15632000   0.04080900
N   -0.32055200   1.37567600   0.31482800
N   -1.30493000   0.71567200  -0.22190300
C   -1.38253500  -0.56373200  -0.28056500
C   -0.49203200  -1.45814100   0.52720000
C    0.86035200  -1.37189800  -0.14640900
C    1.51467500  -0.22306700  -0.35924400
H    1.62892800   1.46195100   0.96034900
H    1.40337400   1.88223500  -0.73508600
H   -0.58791400   2.28734000   0.69259800
H   -2.12672400  -0.96617700  -0.97773000
H   -0.87699200  -2.48357100   0.53204000
H   -0.45101000  -1.09753800   1.56880100
H    1.30042600  -2.30304700  -0.51142800
H    2.48731200  -0.25722200  -0.85738900