16

C    1.37470200  -0.49126800   0.22135300
C    2.71920100  -0.13182500  -0.34307600
O    3.22516800   1.04131900   0.41356300
C    4.33456400   1.58829400   0.18220100
N    5.14121900   1.12623200  -0.78869700
O    6.21493100   1.84993000  -0.83120800
C    7.16016600   1.44165600  -1.84122400
H    0.99186900  -1.35952100  -0.33315800
H    0.65826100   0.33261900   0.10508400
H    1.44610600  -0.76635600   1.28192900
H    2.68593200   0.17648800  -1.39709700
H    3.47318200  -0.92161100  -0.22115500
H    4.60575100   2.45235400   0.80724200
H    7.98528500   2.15501900  -1.76390400
H    6.66730100   1.49186800  -2.82103800
H    7.48636800   0.41718700  -1.61764200