18

C    1.21136100  -0.18002600   0.60479700
C    2.55936800  -0.07825700  -0.10381800
C    2.43097400  -0.65505500  -1.56700700
O    2.78186300  -0.07970600  -2.54396100
N    3.12976700   1.23260400  -0.17733600
C    2.28424400   2.38181100  -0.37412500
C    4.53070900   1.35594700  -0.47673300
H    1.27897000   0.22184000   1.62495200
H    0.93614500  -1.24050400   0.68633200
H    0.40693000   0.33396200   0.06075900
H    3.29578100  -0.73880700   0.38628600
H    1.96402200  -1.66742600  -1.57536700
H    1.83039900   2.30831400  -1.38258200
H    2.87778200   3.30056800  -0.31742400
H    1.47693500   2.40350300   0.36954600
H    4.63329000   1.39127900  -1.58161800
H    5.08839800   0.49220600  -0.09594600
H    4.92852300   2.29070400  -0.05936400