19

C    0.98426200  -0.09524000   0.13642400
C    2.49887400   0.02317000  -0.02699400
C    3.16533900   1.14956200   0.77407100
C    4.57728400   0.65021800   1.12860800
N    5.55390100   0.86068600   0.16303500
C    4.20119400  -0.93260400   1.36487700
N    3.22432100  -1.16318300   0.40165700
H    0.58263100  -0.92654100  -0.45889900
H    0.50824200   0.83186000  -0.21047700
H    0.71977000  -0.25306800   1.19170400
H    2.71658600   0.14152800  -1.10694200
H    2.61273900   1.32408400   1.70980200
H    3.18864600   2.09879300   0.22335100
H    4.93537700   1.02883300   2.09483600
H    5.36016600   0.73874500  -0.82381400
H    6.53236700   0.89238900   0.42205100
H    5.02627800  -1.65636100   1.33751700
H    3.78125500  -0.88831500   2.39059200
H    3.23664600  -1.99648700  -0.18260200