16

C    1.08547500  -0.15045300  -0.07991100
N    2.28867900  -0.03001300   0.66901600
C    3.16256700   1.08699000   0.96132200
C    4.26984200   0.09250100   1.36151400
C    3.22006300  -1.04451400   1.18125500
C    3.45879400  -2.16011000   0.28398900
C    3.66736000  -3.08996000  -0.45687800
H    1.34301800  -0.40877000  -1.12598700
H    0.53700800   0.80002900  -0.06509400
H    0.48181500  -0.97654000   0.32511900
H    2.74569600   1.72299400   1.76371000
H    3.32866200   1.72478700   0.07571700
H    5.08549400   0.03133800   0.63220800
H    4.67409300   0.19559000   2.37387200
H    2.82754700  -1.40931700   2.15241900
H    3.85939800  -3.92429800  -1.11141200