18

C   -1.65997500   0.65735600   0.23352300
C   -1.61572900  -0.81769000  -0.31478600
C   -0.16420100  -0.78567700   0.18562500
N    1.13344700  -1.15551700  -0.24403800
C    2.06403800  -0.07370500   0.09909400
C    1.18645700   1.08306900   0.67438300
C   -0.12711600   0.72635400  -0.00991600
H   -2.27050400   1.37555200  -0.32549700
H   -1.92964000   0.67782900   1.29924200
H   -1.69364500  -0.85373000  -1.41000100
H   -2.28538100  -1.55781300   0.13831900
H   -0.17356900  -0.95632200   1.28464600
H    1.40548500  -1.97069600  -0.80108400
H    2.84986900  -0.46531500   0.76845100
H    2.57323600   0.22336900  -0.83612400
H    1.11382700   1.01221300   1.76989200
H    1.61428500   2.05921100   0.41516400
H   -0.01078400   0.92115100  -1.09089400