15

C    0.92600100   0.09523200   0.43004000
C    2.17568700  -0.00113700  -0.02615900
C    2.98903400   1.20071500  -0.45247100
N    4.24163100   1.11963300   0.30234100
N    4.94015100   0.03658400   0.35924300
C    4.40586800  -1.10043600   0.00785000
C    2.93948700  -1.28926200  -0.15662900
H    0.41858100   1.05934600   0.51319800
H    0.35632600  -0.79358100   0.71320600
H    2.50822900   2.15870500  -0.22500500
H    3.23524800   1.17258600  -1.52938200
H    4.59166300   1.89983200   0.86417500
H    5.10446500  -1.92861600  -0.14868900
H    2.81265300  -1.73617800  -1.16541800
H    2.58948900  -2.06863400   0.54173900