10

C    0.94195100   0.08369300  -0.00039500
C    2.36138500  -0.09352800  -0.00033100
C    3.58208100  -0.27592800  -0.00013200
C    5.00102000  -0.16859000   0.00062600
O    5.88495300  -1.09097400  -0.00001400
O    5.25336600   1.03635900   0.00053800
H    0.72552600   1.16858000   0.01145400
H    0.49613600  -0.36813300   0.89993500
H    0.49819500  -0.34884200  -0.91105800
H    5.52051700  -1.99230700  -0.00063100