13

O    1.44992200  -0.21500000  -0.84593400
C    1.94310200   0.26956400   0.11671200
C    3.21585200   1.19408400  -0.00118200
C    3.65467900   1.45172200  -1.43967000
C    3.35846500   2.89618600  -1.59591200
N    2.93485500   3.46654300  -0.48356500
N    2.89424700   2.54066400   0.43581500
H    1.57235700   0.10886300   1.15360300
H    3.98739900   0.76457000   0.66108400
H    3.09905500   0.83873100  -2.17045400
H    4.72746900   1.25331500  -1.61327500
H    3.45965400   3.49642000  -2.50313200
H    2.60860100   2.81684300   1.37991400