16

N    1.22727400   0.18083700   0.63646200
C    2.36581700  -0.09527000   0.09062100
C    3.32427800   0.98999600  -0.25402900
C    4.74589500   0.59112100   0.04537600
C    5.10279500  -0.73931600   0.19270300
C    4.18813700  -1.77345800   0.07930300
C    2.73640500  -1.50295800  -0.21916900
H    0.95561700   1.14023800   0.84896300
H    0.55698600  -0.55020600   0.87247000
H    3.04661700   1.93518500   0.23774800
H    3.20403400   1.16583500  -1.34471300
H    5.48291100   1.39188400   0.11557400
H    6.14671300  -0.98242000   0.40150200
H    4.48998000  -2.81694100   0.17609000
H    2.54430700  -1.63487600  -1.30581800
H    2.06836500  -2.21139000   0.29477800