12

C    0.93300300   0.05431200   0.00000500
C    2.32126500   0.03281600   0.00000200
C    3.05362600   1.20224200   0.00000100
C    3.70416600   2.25314500   0.00000000
C    4.45683600   3.48922900  -0.00000100
C    3.61250000   4.68576100   0.00000100
N    2.93574600   5.61934100   0.00000200
H    0.36635600  -0.88150100   0.00000600
H    0.38018800   0.99903000   0.00000600
H    2.86223800  -0.92118200   0.00000100
H    5.13355000   3.48483500  -0.87767100
H    5.13355400   3.48483500   0.87766600