17

C    2.52325000  -1.29399400  -1.19093300
N    3.24300400  -0.47680000  -0.23525500
N    3.62422800   0.71654700  -0.54228200
C    4.59963600   1.37142500  -0.00950900
C    4.73007500   2.83729900  -0.15362300
C    3.51685000   3.52373400  -0.75501600
O    2.42152400   3.17241700   0.04527000
H    2.76952400  -2.34743700  -1.00692700
H    2.82050200  -0.99898400  -2.20386800
H    1.43887000  -1.14677800  -1.06379200
H    3.26403500  -0.76345700   0.74934300
H    5.38140400   0.81622900   0.53597000
H    5.65233500   3.03797400  -0.72957500
H    4.93590400   3.23152900   0.85832000
H    3.38688900   3.20017100  -1.80509000
H    3.70545000   4.61118200  -0.76289500
H    1.63252600   3.62594600  -0.26648600