19

C    2.90887500  -2.43334900  -1.38750300
C    2.98379100  -1.62762000  -0.15109600
C    2.78108700  -2.22346200   1.10816900
C    3.29281400  -0.19996400  -0.22806400
C    4.88590900  -0.03820600  -0.07867200
C    5.23930500   1.40057100  -0.24820200
C    5.84741500   1.88570300  -1.33660000
H    1.89838800  -2.27251800  -1.81625900
H    3.03695100  -3.51000800  -1.22113000
H    3.61321200  -2.06925300  -2.15026500
H    2.44471400  -3.26119200   1.19374300
H    2.93635100  -1.65598200   2.03098700
H    2.83396600   0.37682400   0.58812900
H    3.01001500   0.22449900  -1.20010200
H    5.37530600  -0.66334500  -0.83973800
H    5.17695100  -0.40573800   0.91566600
H    4.97667300   2.07206200   0.57653800
H    6.11123400   1.24688000  -2.18529400
H    6.12653400   2.93974000  -1.40343300