12

O    1.02876000   0.07919000   0.00000000
N    2.31923000  -0.06111300   0.00000000
C    2.93639700   1.10892200   0.00000000
C    4.31631300   1.09394500   0.00000000
C    5.55496700   1.11038300   0.00000000
C    6.94180700   1.09876000   0.00000000
C    7.66394600   2.26190000   0.00000000
H    0.64895500  -0.81743500   0.00000000
H    2.36956600   2.05042600   0.00000000
H    7.44307400   0.12481600   0.00000000
H    7.17291300   3.23891900   0.00000000
H    8.75669100   2.23564100   0.00000000