16

N    1.09680300  -0.37195800  -0.25410800
C    2.46354400  -0.25917900  -0.16749500
C    2.94349700   1.37450200   0.01915700
C    4.38111700   1.43330800   0.10829100
C    5.18649200   1.71064100  -0.97574100
C    6.58154200   1.77670100  -0.89610400
C    7.79737000   1.84261500  -0.84241500
H    0.51709100  -0.35160700   0.57892400
H    0.61527500  -0.22270200  -1.13494000
H    2.96305300  -0.59182400  -1.08481000
H    2.86825700  -0.76426600   0.71828400
H    2.43649300   1.67261600   0.94493400
H    2.52646100   1.88825300  -0.85623400
H    4.85936000   1.20352300   1.06664600
H    4.73055400   1.91906100  -1.95192200
H    8.87311600   1.90058100  -0.79580700