18

C    0.84841200   0.16770100   0.07866400
C    2.30528200   0.10061800   0.43302400
N    2.65859200  -0.82393400   1.32903400
C    2.96596400  -0.85912100  -1.51664800
O    2.39581500  -2.04383100  -1.49156200
C    3.14767300   1.27983800   0.21580500
C    4.20702800   1.63194000   0.95981300
H    0.67390300   0.81173100  -0.79121900
H    0.30649600   0.60612200   0.93301900
H    0.43461100  -0.83037300  -0.12338000
H    1.99244600  -1.51890300   1.64711500
H    3.58001600  -0.83894800   1.75128700
H    4.04789800  -0.77828200  -1.36299000
H    2.47094600  -0.14136600  -2.17576800
H    2.97159000  -2.72001200  -1.11035300
H    2.83598900   1.92156200  -0.61259200
H    4.54435200   1.06863600   1.83493300
H    4.76591200   2.54169300   0.73117800