10

C    0.36429900   1.11026700  -0.04836500
C    0.97081500  -0.26642900   0.18451600
O   -0.30710100  -0.87023700   0.31023200
C   -0.95896600   0.37273200   0.10136800
H    0.57875400   1.85859400   0.72687400
H    0.55199900   1.54820900  -1.03829000
H    1.55157400  -0.47671400   1.11000400
H    1.52487400  -0.78275200  -0.63064300
H   -1.64618200   0.26754400  -0.76738300
H   -1.62028500   0.57380400   0.97327700