18

C    1.61105900  -0.16191900  -0.69920200
C    2.27049500   0.12236300   0.60252600
C    2.96416100   1.56393700   0.80322100
C    4.20922000   1.42378000  -0.09717000
C    5.02839100   2.76229400   0.14495000
C    6.12778200   2.68938300  -0.79531700
N    6.98364300   2.58132600  -1.57042500
H    0.91695800  -1.01307300  -0.54943900
H    2.31999600  -0.51591400  -1.46529000
H    1.02507300   0.68518500  -1.08031200
H    2.92166000  -0.68064100   0.97085000
H    1.53355400   0.38663600   1.41301300
H    3.23533000   1.71522900   1.85547200
H    2.27510200   2.34983900   0.46761400
H    3.91766100   1.33399800  -1.15137000
H    4.84617600   0.57279500   0.17852100
H    5.40040000   2.80794000   1.17759100
H    4.40720400   3.64465200  -0.06170300