19

C    0.61925900   1.19561500  -0.25247500
C    1.68195700   0.27901200   0.19678900
N    2.70961300   0.62883200   0.87448400
C    3.79946400  -0.28894900   1.36724900
C    3.58374700  -1.71522100   1.03303400
C    2.82007600  -2.59954100   1.96987800
N    4.47609200  -2.31066800   0.16770200
H   -0.34585000   0.84200900   0.14452300
H    0.53790700   1.13266700  -1.34942600
H    0.78442000   2.23847300   0.04745100
H    1.63849900  -0.79369900  -0.04529800
H    2.80482500   1.61216900   1.14030800
H    4.73455200   0.10881100   0.94311700
H    3.83273900  -0.10862400   2.45537900
H    2.00608200  -2.05138900   2.46727800
H    3.46646700  -3.01510400   2.76595000
H    2.36659500  -3.45337300   1.44213900
H    4.95423000  -1.76661600  -0.53872300
H    4.35325600  -3.28932000  -0.05990500