14

C    0.94988400   0.01828900  -0.02221900
C    2.42361000  -0.04089600   0.01745200
C    3.30194700   1.11149500  -0.12525700
N    4.53358400   0.66506200  -0.03643900
O    5.69608000   1.31358600  -0.10256400
C    4.55814900  -0.73647900   0.16042300
C    3.26157100  -1.17087400   0.19362300
H    0.56958500   0.68823100   0.76797100
H    0.50433500  -0.97454700   0.10708400
H    0.60681900   0.44375600  -0.98093000
H    3.05264100   2.16200800  -0.27779600
H    5.52540400   2.25951300  -0.23812900
H    5.51887200  -1.24138000   0.25163300
H    2.93499300  -2.19905400   0.33070600