15

C    0.89376000   0.10032800   0.00897300
C    2.36102700   0.11563600   0.19314100
C    3.39121200  -0.86598900  -1.07247000
N    2.77270600  -1.47200300  -2.07571300
C    3.32853300   0.61519000  -0.79716800
O    4.45326800   1.15590200  -0.24040200
H    0.47889500   0.93123300   0.60891600
H    0.44089500  -0.82155800   0.40109400
H    0.58162800   0.25797300  -1.03211800
H    2.78190000  -0.11797400   1.17769900
H    4.07539500  -1.46373600  -0.46297700
H    2.22720100  -0.96143700  -2.76458300
H    2.81557600  -2.48199300  -2.18231800
H    2.87126700   1.18217600  -1.62845900
H    5.12415300   1.31960200  -0.91372200