13

C    0.94641900   0.03094600  -0.02915000
C    2.46249600  -0.07413000  -0.00634700
C    3.12792600  -0.73530800  -1.20221000
C    2.98667900   1.44700900  -0.02515300
O    3.61745700   1.87198700   0.87016500
H    0.54161500   0.58577700   0.82884100
H    0.57290300  -1.00458700   0.05636800
H    0.56668200   0.45710100  -0.96853100
H    2.83258000  -0.47905100   0.94638600
H    2.78260100  -0.32122600  -2.16008800
H    2.83334800  -1.79857200  -1.15916700
H    4.22546900  -0.70820700  -1.15206500
H    2.70788400   2.04051100  -0.93116700