15

C   -0.87285000  -0.96875900  -0.11900600
C   -1.17814000   0.42538100   0.30906500
C   -0.01190800   1.27262300  -0.20927700
C    1.24568000   0.40518900   0.00501500
C    0.83595000  -1.03395400  -0.00452700
H   -1.41188900  -1.80457800   0.34276300
H   -0.73542400  -1.14493200  -1.21554600
H   -1.28010100   0.46913000   1.40651100
H   -2.16473500   0.71747700  -0.09494600
H   -0.13519200   1.45947900  -1.28787500
H    0.06523300   2.24846500   0.28476600
H    2.04636100   0.61762900  -0.71354600
H    1.65865300   0.58576400   1.02191500
H    1.35621200  -1.73297900  -0.67181800
H    0.63031900  -1.55138700   0.96725800