13

C    0.89606000  -0.11144700   0.23293000
C    2.08948300  -0.04220500   0.07005600
C    3.53182600   0.02188700  -0.11322100
C    4.22486200  -1.17182800  -0.82563900
N    5.03031300  -0.62097400  -1.86887400
C    4.74034300   0.67282500  -1.97057300
N    3.92414200   1.10529000  -1.02578100
H   -0.16966200  -0.17518400   0.38238800
H    4.02607900   0.21577900   0.85848800
H    3.48625000  -1.85912000  -1.28681400
H    4.84112600  -1.80295200  -0.16463800
H    5.14480000   1.32725300  -2.74827700
H    3.59838100   2.06967600  -0.92600100