13

O    0.96369300   0.05508600   0.25246400
C    2.13834400  -0.03074100   0.03064700
C    2.97404200   1.21071200   0.00234800
C    4.31480500   1.35705800  -0.22653800
C    4.63053400   2.78754300  -0.14162900
O    3.44956600   3.46111400   0.13976500
C    2.40905500   2.54975200   0.23807300
H    2.66119200  -0.99237000  -0.15990500
H    5.04302500   0.57111000  -0.43690500
H    5.39479000   3.04319000   0.63348900
H    5.08543400   3.21261900  -1.07040400
H    1.59062300   2.83417900  -0.46939000
H    1.89857100   2.66554000   1.22662500