16

C    3.26868800  -1.10382700  -2.30059900
C    3.46112100  -0.60570400  -1.21748300
C    3.69975100   0.02529400   0.07149600
C    4.55568400   1.30445600  -0.14193300
C    3.92929900   2.50302300  -0.89092700
C    4.11062600   3.31187700   0.41030500
N    4.68629100   2.14406600   1.01866900
H    3.09130700  -1.56680000  -3.25629500
H    4.23125600  -0.65887000   0.75153800
H    2.74419200   0.30258600   0.54479500
H    5.55585900   0.98589300  -0.49821000
H    2.88728000   2.34598800  -1.19597100
H    4.50993900   2.86605700  -1.74667000
H    4.81488800   4.16542000   0.40560000
H    3.19882300   3.65053000   0.93946800
H    5.06297200   1.97011200   1.95733900