11

C    2.12091600   0.01042700   0.57325700
O    1.28529300   0.46683300  -0.59938700
C    2.08047800   1.49218200  -0.74738000
C    2.31961900   2.64819500  -1.52581300
S    3.69638600   3.38991900  -0.88717100
C    3.94981800   2.16156400   0.41229300
C    2.98274100   1.23961500   0.31077200
H    2.55667500  -0.97105100   0.34975600
H    1.50456300   0.00810600   1.48058400
H    1.77541200   3.05184300  -2.38164100
H    4.79508600   2.28556000   1.09139000