18

C    0.07669800   3.41898900  -0.49508300
C    1.53803100   3.60803100  -0.34859400
C    2.35596900   2.66581300   0.25787500
O    3.65154900   2.69968000   0.33491900
C    4.42179500   3.59483600  -0.45892700
C    4.36190500   3.13587700  -1.92479200
N    3.01141200   3.13350800  -2.43685200
H   -0.45536700   4.18468400   0.09445400
H   -0.26042500   2.42377300  -0.17799000
H   -0.22419100   3.58110000  -1.54235400
H    1.95235400   4.58117300  -0.61929300
H    1.93319200   1.77665800   0.73991400
H    5.44530700   3.52289600  -0.07474400
H    4.06836800   4.62920000  -0.33298100
H    4.78525400   2.12374000  -1.98344300
H    5.02441900   3.80351600  -2.49954500
H    2.72940200   2.27786100  -2.90705300
H    2.76049200   3.94174700  -3.00061500