11

N    0.98600400   0.16573100  -0.03428800
C    2.29492300   0.04254900  -0.00397500
C    2.98159000  -1.20835300   0.02771200
C    2.35661200  -2.54650700   0.03201200
O    3.06504100  -3.51929000   0.06009100
C    3.07735200   1.24795800  -0.00286100
N    3.71730500   2.21085500  -0.00164100
H    0.54512300   1.08733900  -0.05613600
H    0.36395300  -0.64217500  -0.03721200
H    4.07611800  -1.18758800   0.05122000
H    1.24673000  -2.63377500   0.00929900