19

C    0.95027100   0.00237300  -0.05212800
C    2.48835900  -0.00047300   0.02226400
C    2.95760300  -0.00145600   1.47675100
C    3.03013900  -1.20710200  -0.78821900
C    3.32546800  -0.70670000  -2.12807600
C    3.32807500   0.70300200  -2.12796200
C    3.03459200   1.20427700  -0.78802600
H    0.59203800   0.00314300  -1.09447100
H    0.54161300   0.89090100   0.44997500
H    0.53833600  -0.88474400   0.44978900
H    4.05569700  -0.00349200   1.55397500
H    2.57705900  -0.88759100   2.00503300
H    2.58033900   0.88599700   2.00517400
H    2.40725700  -2.11960700  -0.78490400
H    4.00756700  -1.56962200  -0.38073600
H    3.54273000  -1.32582900  -3.00363400
H    3.54762500   1.32146300  -3.00342200
H    4.01334500   1.56312900  -0.38047900
H    2.41507800   2.11907200  -0.78457200