15

C    1.05448600  -0.17859800  -0.33233500
C    2.55828900  -0.02739400  -0.35442300
C    3.30986700  -1.25677300  -0.06747100
C    3.09298100   1.23959300   0.35463700
O    3.41729700   2.16648000  -0.72001800
C    3.30356300   1.57212400  -1.83782000
O    2.89690400   0.38947000  -1.84690300
H    0.74400700  -0.45280300   0.68718100
H    0.73726600  -0.97834300  -1.01473400
H    0.54706600   0.75629300  -0.60898300
H    2.82539100  -2.22909900  -0.17490700
H    4.37308400  -1.21711300   0.18053600
H    4.01934500   1.07540700   0.91913900
H    2.34442800   1.72727600   0.98978900
H    3.56124000   2.10324700  -2.76274600