17

C    2.08916900  -0.54582100   0.77996300
O    3.45671500  -0.14419300   0.59151900
N    3.60364700   1.14363100   0.46257800
C    4.90013800   1.43510000   0.29161700
N    5.28639600   2.68001300   0.13962400
C    4.35516400   3.80720000   0.14577600
C    6.69774100   3.00252000  -0.04692500
H    2.12089700  -1.63529500   0.87239100
H    1.50110900  -0.23866100  -0.09456400
H    1.70142500  -0.08090600   1.69563600
H    5.65284400   0.63706300   0.27680200
H    3.33139900   3.45225600   0.29167400
H    4.43965200   4.33677200  -0.81359900
H    4.63850000   4.49137800   0.95793900
H    7.30433100   2.09024200  -0.03535000
H    7.02296800   3.67288700   0.76137200
H    6.82422800   3.51826200  -1.00948500