15

C    3.67406700  -0.93646000  -1.69753000
S    3.01521000  -0.50414700  -0.09428900
O    1.57478400  -0.42258300  -0.15080400
O    3.77199700  -1.14385900   0.95460000
C    3.50414200   1.51178700   0.11988600
C    4.92243600   1.61280200   0.22365500
C    5.70668100   2.06737400  -0.81144100
H    4.76260500  -0.80661300  -1.66269000
H    3.17885900  -0.31498700  -2.45331500
H    3.41114200  -1.99692800  -1.83001000
H    2.93065100   1.60078500   1.05258100
H    3.00777100   1.94593600  -0.75799800
H    5.39187300   1.32586400   1.17062400
H    5.27629500   2.33370300  -1.78268100
H    6.78266200   2.21186100  -0.67930500