11

C    2.28697100  -0.01987700   0.49746200
O    1.22295100   0.71329200  -0.29015000
C    1.97950400   1.77704200  -0.23211100
C    2.20276200   3.15071000  -0.54883400
O    3.37895700   3.43484200  -0.02317100
C    3.92922900   2.31968400   0.61676400
C    3.06584000   1.28929100   0.48880700
H    2.68129200  -0.84532600  -0.10776000
H    1.86585500  -0.34915000   1.45527900
H    1.65920100   3.93178000  -1.08083600
H    4.90277600   2.49613600   1.07114800