17

C    3.08287200  -1.34311900   0.55525100
C    2.41069700  -0.10312100   0.08333300
C    1.03973600  -0.12033400  -0.18987400
C    3.16931200   1.11913400  -0.05307600
C    2.70410500   2.16747900  -0.81569700
C    4.54031500   1.20807800   0.60237400
O    4.51531100   0.82414300   1.94071200
H    3.95006400  -1.57125700  -0.08727500
H    2.40745100  -2.20545400   0.57038100
H    3.50061400  -1.16778500   1.56059100
H    0.46893200  -1.04478800  -0.06627200
H    0.48105700   0.76619700  -0.49647900
H    1.75424600   2.14677900  -1.35421400
H    3.31417600   3.06628900  -0.94719500
H    4.94955300   2.22174200   0.45619500
H    5.22036100   0.52041400   0.07026700
H    4.24546800   1.56377900   2.49455600