15

C    1.32188700  -0.80923600  -0.10598600
C    2.82206600  -0.71978800   0.11000800
O    3.51750800  -1.66037500   0.31508000
C    3.43435800   0.71513100   0.04670800
C    4.96106500   0.65387800  -0.08207900
C    5.41266200   2.02287500  -0.02682200
C    5.72994700   3.19916600   0.03118800
H    0.82786400   0.07293200   0.31938000
H    0.94639400  -1.74251800   0.32925400
H    1.17126400  -0.81696800  -1.19798000
H    3.10225000   1.17951700   0.99282600
H    2.93894700   1.24662200  -0.78101400
H    5.25693500   0.17954800  -1.03031400
H    5.38019000   0.05614800   0.74569800
H    6.03457300   4.23298500   0.07895200