18

C    0.63876300   0.48826600  -0.45200900
C    1.94076000  -0.00469000   0.07073800
C    2.21061100   0.09576600   1.54010200
O    3.47229800  -0.42960800   1.85217200
C    2.90011600  -0.75527500  -0.78941600
C    3.59824400   0.53060000  -1.00414300
N    4.63124900   0.92784100  -0.29644000
H    0.67021300   0.68984600  -1.53165900
H    0.29450100   1.39121500   0.07277400
H   -0.12853100  -0.29368800  -0.29756800
H    1.39498800  -0.45832200   2.04942400
H    2.10775300   1.15275300   1.85981100
H    3.54789200  -0.57104100   2.80121900
H    2.45382200  -1.15448100  -1.70772400
H    3.49544500  -1.50030900  -0.24870400
H    3.25658700   1.19863400  -1.80052900
H    4.93616800   0.37059100   0.50293600
H    5.01866500   1.85928100  -0.41195400