17

C    1.00718200  -0.10553200   0.16533000
C    2.47395000  -0.02405500  -0.02283500
C    3.17492100   1.20549000  -0.17471800
C    4.64877700   1.26298900  -0.16453000
C    5.25573200  -0.03129900   0.37358800
C    4.54832300  -1.22653500  -0.22208700
O    3.10457400  -1.14340200  -0.01467300
H    0.62448300  -1.06485600  -0.20552600
H    0.49593100   0.73451700  -0.32134300
H    0.78937600  -0.05138600   1.24674100
H    2.58085000   2.11470100  -0.30021500
H    4.97607700   1.46424500  -1.20739700
H    4.98073500   2.15141400   0.39751200
H    6.32508900  -0.09769200   0.13199700
H    5.17439700  -0.06073000   1.47135200
H    4.83096700  -2.17761000   0.24092000
H    4.68342300  -1.30734100  -1.31162700