11

O    1.32150700  -0.02839600   0.86550000
C    2.34351300  -0.04857900   0.23983500
C    3.31455800   1.12047400  -0.08186600
C    4.08744000  -0.05683600  -0.75773700
O    2.98927300  -0.99105700  -0.36668800
C    4.26563500   0.02083500  -2.17430000
C    4.42691900   0.11251500  -3.37517500
H    3.76862700   1.59146300   0.80053300
H    2.84421600   1.85476500  -0.75166800
H    5.00045000  -0.34912600  -0.21886900
H    4.57652800   0.18365000  -4.44290200