18

C    1.03133500  -0.02920700  -0.10481200
C    2.52788200   0.03338600  -0.05541000
C    3.51520700  -0.64250200  -1.11044000
C    4.56339000  -0.39722700  -0.00734800
C    3.44872600  -0.72068700   1.00681500
C    4.57152900   1.13654300   0.04948800
N    3.13233500   1.32017400   0.01116800
H    0.58522300   0.41987200   0.79466600
H    0.71068300  -1.07745700  -0.15382300
H    0.64157900   0.48628000  -0.99482500
H    3.61617300  -0.13645200  -2.08135200
H    3.24497300  -1.69737300  -1.24233700
H    5.53818700  -0.89428900   0.00491100
H    3.17315800  -1.78177200   1.04341600
H    3.48745800  -0.28779800   2.01679100
H    4.98909400   1.57246300   0.97370100
H    5.04496100   1.63819900  -0.81236300
H    2.63785600   2.21446500   0.02834400