17

C   -1.72211100   0.62084400   0.26967500
N   -1.60518300  -0.77168900  -0.28369600
C   -0.21484800  -0.84199500   0.05288700
C    1.11005100  -1.14120800  -0.61210000
C    1.94330100   0.05101000  -0.00186200
N    0.96284600   1.07748400   0.48145500
C   -0.25263100   0.79121400  -0.12155400
H   -2.45854400   1.24249600  -0.25399600
H   -1.93003900   0.60075200   1.34815700
H   -1.82642600  -0.83522900  -1.27970300
H   -0.14866100  -1.02184000   1.13659200
H    1.53383200  -2.11790700  -0.34444900
H    1.05197500  -1.07277200  -1.70701600
H    2.54581400  -0.27579000   0.85603500
H    2.62604200   0.49911500  -0.73706000
H    0.98996700   1.30685100   1.47337900
H   -0.18783600   0.94934400  -1.20737400