14

C    1.01550700  -0.05245300   0.25133300
C    2.37872000   0.04888400   0.00043800
C    3.20456000   1.27701700  -0.11810500
C    4.50447400   0.74338800  -0.74039300
O    4.55691300  -0.62236500  -0.32530900
C    3.28583400  -1.09435500  -0.19923000
H    0.49613200  -1.01309000   0.17700900
H    0.43321400   0.82714600   0.54200700
H    3.35730500   1.64006100   0.92100800
H    2.72500700   2.09773600  -0.67115200
H    4.47484200   0.79105900  -1.84264900
H    5.41189800   1.24458300  -0.38669000
H    2.89562900  -1.54810200  -1.16359300
H    3.21540700  -1.92501100   0.52933700