19

C   -1.56995900   0.74925400   0.16894200
C   -1.57581400  -0.74360700  -0.13701400
C   -0.35431000  -1.49230200   0.39043500
C    0.97882000  -1.21118400  -0.29211700
O    1.62438200  -0.00126800  -0.01755300
C    0.98810300   1.21160700   0.26531900
C   -0.35890700   1.49424700  -0.38741600
H   -2.47531800   1.20934300  -0.25183900
H   -1.62762300   0.91100500   1.25893500
H   -1.65968000  -0.90502500  -1.22535500
H   -2.47234900  -1.20112800   0.30497200
H   -0.21886100  -1.32977600   1.47485500
H   -0.49721100  -2.57603000   0.25909000
H    1.75087100  -1.97492500  -0.11365100
H    0.84179700  -1.18086900  -1.40574900
H    0.87807900   1.18694700   1.38218400
H    1.75862900   1.97221800   0.06677300
H   -0.49678300   2.57855000  -0.25546400
H   -0.24863400   1.32923300  -1.47436600