12

C    1.22555400  -0.12402100   0.20698700
N    2.23104400   0.43691800  -0.60961700
S    2.99932100   2.06253600  -0.27009400
O    2.76302600   2.74629700  -1.50353400
O    2.46182000   2.41254400   1.00703500
C    4.59968200   1.53791800  -0.14722500
C    5.77506400   1.26964100  -0.04180900
H    1.33088700  -1.22393100   0.22741000
H    0.23564400   0.07292500  -0.26827800
H    1.24139100   0.32862100   1.20735800
H    2.43168900   0.02872200  -1.53492100
H    6.82369500   1.02201600   0.05129800