15

C    0.97755200  -0.08817400   0.05323300
C    2.45267900  -0.03242600  -0.01188500
C    3.19611200   1.17503300  -0.15700100
C    4.65700900   1.16118000   0.06806900
O    5.05572600  -0.05157200   0.65388500
C    4.56126700  -1.14610800   0.02871900
O    3.08148400  -1.14699100   0.08981800
H    0.61242300  -1.05808600  -0.30846900
H    0.52213900   0.73943600  -0.50521700
H    0.67498600   0.01207500   1.11129000
H    2.67756500   2.09847800  -0.42651000
H    5.18446000   1.35461300  -0.89358200
H    4.95248600   1.97770100   0.74741000
H    4.86177400  -2.05228800   0.56255100
H    4.79292200  -1.20626300  -1.05029100