11

C    0.96389900  -0.03195800   0.05572400
C    2.49043500   0.04918700   0.03945400
C    2.97759000  -0.80612000  -1.25332200
O    3.57039900  -0.34539100  -2.15262400
C    3.03952100   1.38505200   0.03942500
N    3.45158700   2.46632500   0.07227200
H    0.63802800   0.46882400   0.98304700
H    0.61500400  -1.07312400   0.08252000
H    0.51144300   0.50408900  -0.79013300
H    2.96155900  -0.55447900   0.84052200
H    2.66722700  -1.88133600  -1.20053400