12

C    0.30092800   0.93440200   0.03676500
C    1.15258100  -0.37341900   0.04679800
C   -0.30973200  -0.91621000  -0.03737500
C   -1.16142900   0.39157800  -0.04621600
H    0.43024400   1.44598500   1.00340900
H    0.52133200   1.49028800  -0.88801200
H    1.68526800  -0.58678900   0.97770700
H    1.77369000  -0.54353400  -0.83701100
H   -0.43893700  -1.42637300  -1.00476400
H   -0.53012500  -1.47349300   0.88658500
H   -1.69513100   0.60553200  -0.97638800
H   -1.78159900   0.56107300   0.83839300