18

C    2.57511300   3.42601100  -0.27675300
C    2.81943200   2.16558100  -0.64015700
C    3.26258900   1.09949400   0.31244100
C    4.73420800   0.69204100  -0.01687000
C    5.85467900   1.71201400   0.28775700
C    6.37518400   0.70915400   1.33911300
N    5.32243300  -0.19001600   0.94722500
H    2.23136400   4.16655700  -1.00233300
H    2.68306500   3.76044700   0.76001300
H    2.69470900   1.86622800  -1.68694800
H    2.63533200   0.19819300   0.22651300
H    3.21965400   1.45616000   1.35279100
H    4.73867500   0.23706200  -1.02672200
H    5.49782400   2.66831800   0.68889800
H    6.54371000   1.89864400  -0.54429000
H    7.37642500   0.26456100   1.18944500
H    6.30299500   1.00025000   2.40416300
H    5.07323000  -1.13586000   1.25534200