15

C   -1.04603800   0.02375100  -1.04008000
C   -0.63326400   1.04473500   0.05588000
C   -0.97376800  -0.03505300   1.10098100
C   -0.56101200  -1.06605800   0.02266000
N    0.85146600  -1.12223100  -0.15727900
C    1.51443000   0.01624800  -0.00810300
N    0.82812200   1.14700500   0.00913200
H   -2.13260200  -0.04707200  -1.17064100
H   -0.53976700   0.06414900  -2.01384300
H   -1.07802300   2.04575000   0.08396300
H   -0.42540900  -0.03550500   2.05376700
H   -2.05354900  -0.06827100   1.28708300
H   -1.00672500  -2.06612600  -0.03010500
H    2.60869400   0.02941800   0.02462900
H    1.29869800   2.04789000  -0.07887300