15

N    1.16551700  -0.00566100  -0.29099700
C    2.57186700  -0.01014200   0.09791400
C    3.14199400  -1.21227000  -0.65590300
C    3.01060700  -0.68930200  -2.05248900
C    3.01285000   0.69183800  -2.04468800
C    3.14590800   1.19856700  -0.64228600
H    0.62317800   0.84681900  -0.14976700
H    0.62041000  -0.85791700  -0.15939900
H    2.71602700  -0.01655100   1.19138100
H    2.59923100  -2.15102800  -0.46885300
H    4.20378900  -1.40857300  -0.41695200
H    3.02380700  -1.30203400  -2.95701500
H    3.02805700   1.31470200  -2.94223600
H    4.20833000   1.38871100  -0.40115200
H    2.60619200   2.13691000  -0.44463400