19

C    3.00565400  -0.83467600   0.63794100
C    2.37566100   0.57596100   0.62820400
C    3.36783200   1.55819700   0.11671700
C    3.42804400   1.93248000  -1.31790500
C    2.43409100   3.03640000  -1.17213600
O    4.24207800   2.11945400   0.85846800
C    4.24826900   2.03673000   2.30116700
H    2.25589200  -1.55095900   0.99740100
H    3.87971700  -0.89576400   1.30074100
H    3.31425200  -1.14221300  -0.37070500
H    2.02947000   0.85116200   1.63468000
H    1.50198900   0.57932200  -0.03708800
H    3.07839200   1.12053400  -1.96874900
H    4.42946600   2.28346700  -1.59928900
H    2.76628500   4.02718300  -0.85407100
H    1.36838600   2.86276500  -1.33780800
H    4.28612400   0.98856200   2.62046500
H    3.35793600   2.54331800   2.69567200
H    5.15443100   2.56301800   2.61311500