12

C    0.98453700  -0.03291500   0.00663500
C    2.41694000  -0.00275100  -0.00694200
C    3.65548200   0.04231300  -0.01858100
C    5.04748100   0.09249600  -0.00392600
C    5.81963500  -0.76014400  -1.09561600
O    5.69964700   0.59094100  -1.14193500
H    0.62477200   1.00364000   0.15902100
H    0.61034600  -0.64450300   0.84165600
H    0.58596100  -0.38722600  -0.95612900
H    5.57635900   0.17124800   0.95465200
H    5.26672700  -1.34010100  -1.84461500
H    6.73149600  -1.19296600  -0.66102900