18

C    1.66267600  -0.46384100  -0.56257100
N    2.49184100  -0.01152800   0.54589800
C    3.53653900   0.78999900   0.45936400
C    3.97401000   1.48808300  -0.77103100
C    3.39422100   2.74888100  -0.25202500
O    4.19954600   3.59822600   0.32316000
C    3.64169100   4.73571000   0.98905700
H    0.96133900  -1.21854700  -0.19106000
H    2.27965700  -0.92128500  -1.34792200
H    1.08283600   0.36861400  -0.98917900
H    2.22815700  -0.32296000   1.47656200
H    4.10680800   0.95883100   1.37688600
H    3.50890700   1.13370400  -1.69846000
H    5.06535300   1.55104200  -0.86963900
H    2.32966600   2.98969000  -0.35858600
H    4.48479000   5.37626600   1.26448700
H    3.10533000   4.41157600   1.89244200
H    2.96529200   5.27800600   0.31307800