21

C    0.33172100   1.57914400   0.65665700
C    1.74319700   1.00559300   0.55467500
C    2.80275100   2.12048000   0.68967000
C    4.18089500   1.49949500   0.58678800
C    5.29302800   2.69772400   0.69604900
O    6.50019500   2.09579000   0.68063900
C    7.18715300   1.85878300  -0.53259000
H   -0.40573800   0.76973100   0.55765300
H    0.13592400   2.31294300  -0.13886700
H    0.16572000   2.06998300   1.62671400
H    1.87294000   0.49116400  -0.41081900
H    1.90348300   0.25234500   1.34215500
H    2.67745700   2.62830300   1.65861400
H    2.64988900   2.86986100  -0.10280700
H    4.36420600   1.01319300  -0.38323200
H    4.40003000   0.79696300   1.40226600
H    5.13621100   3.15257900   1.68406400
H    5.12729700   3.37530300  -0.15628200
H    8.20087300   2.26987700  -0.39635000
H    6.67512000   2.31912600  -1.38788400
H    7.28484800   0.76611800  -0.64248900