13

O    3.57217400  -0.30255800   1.63632000
N    3.18478300   0.26941400   0.53653700
C    3.33363500  -0.43541400  -0.75796900
C    3.93282900  -1.74231800  -0.55203600
C    4.43193200  -2.82707000  -0.36657700
C    2.63339700   1.55517300   0.64218500
N    2.48321500   2.20152200   1.72085600
H    3.93399900  -1.19417800   1.39693800
H    3.95545400   0.20344100  -1.40883700
H    2.32807400  -0.51109600  -1.20695000
H    4.87725900  -3.79880500  -0.21501400
H    2.33473100   1.96012400  -0.33340500
H    2.80211100   1.71346500   2.56525300