16

O    1.01290300   0.22995600   0.37825400
C    2.17222900   0.08468000   0.23122800
C    3.11403100   1.35146200  -0.11308100
C    2.34879000   2.67580700  -0.21906500
C    3.18559600   3.67650500   0.59503800
C    3.91220700   2.80336600   1.61806200
N    4.03611400   1.53737900   0.93267700
H    2.70510100  -0.89003600   0.29250100
H    3.62775500   1.00542300  -1.03282900
H    1.34672900   2.54346700   0.21357000
H    2.21570600   2.98082100  -1.26386300
H    3.92386900   4.18547700  -0.04125100
H    2.57096000   4.44795900   1.07398700
H    4.90660200   3.15499100   1.93293900
H    3.32287500   2.64059700   2.54492000
H    4.72888300   0.83478300   1.19971000