11

N    1.03404100   0.04870500   0.00012300
C    2.33416000  -0.02659300   0.00025000
C    3.15430900  -1.18250000   0.00046600
C    4.56471900  -0.65785900   0.00102900
O    5.56231900  -1.29656200   0.00139900
N    4.50024000   0.79444700   0.00112000
C    3.27716600   1.14332400   0.00132600
H    0.44570600  -0.78530300  -0.00148100
H    0.55491100   0.95049900  -0.00084700
H    2.86606100  -2.23466700   0.00024000
H    2.94841800   2.18880900   0.00089600