17

C    2.27748900  -0.52765000  -1.48118100
C    2.44840000   0.02631500  -0.07110100
C    3.35012000   1.24907800  -0.02895500
C    2.79473100   2.56474800  -0.63888900
N    2.98895200   3.20196500   0.63275200
C    3.44979000   2.02354700   1.31079500
H    1.62358900  -1.40964500  -1.47320100
H    3.24319800  -0.83186300  -1.91137900
H    1.82111800   0.21053700  -2.15977800
H    2.88326100  -0.74296000   0.58680700
H    1.46575700   0.28445200   0.36122000
H    4.34738300   1.01725100  -0.43133300
H    1.72352400   2.56037300  -0.92816900
H    3.34687500   3.06872700  -1.45404900
H    2.89407300   4.17834200   0.93555700
H    4.43921500   2.16772700   1.78409600
H    2.74792900   1.71688800   2.11308100