13

N    2.78800200  -1.07458600   0.14661000
C    2.14975300  -0.00518700   0.06077500
N    2.90251900   1.22132600   0.03217100
C    2.40820200   2.48110400  -0.05682300
C    3.50017200   3.40686700  -0.05377800
C    4.65333500   2.66626100   0.03910900
C    4.26837600   1.29327700   0.09265600
H    2.18875700  -1.90155900   0.16158800
H    1.06363300   0.16023200   0.00105800
H    1.33566800   2.67337800  -0.11730100
H    3.40030100   4.48924600  -0.11496100
H    5.67968300   3.02786300   0.06850900
H    4.85932300   0.37876200   0.16817600