13

C    1.00875400   0.01313200  -0.00543300
C    2.48145400   0.06961900   0.00021100
N    3.22364000   1.15324500   0.00543800
C    4.49471000   0.74173000   0.00843000
O    5.47297200   1.58485300   0.01378900
C    4.55773700  -0.70950500   0.00483900
N    3.27633600  -1.08328200  -0.00027400
H    0.60903000   1.03268200   0.00242900
H    0.64055200  -0.53345200   0.87749400
H    0.64757700  -0.51607600  -0.90187400
H    6.35157700   1.17739800   0.01557000
H    5.40030700  -1.40033300   0.00579500
H    2.93480900  -2.04218000  -0.00385300