14

O    1.03286800   0.25751000  -0.35193300
C    2.31358000   0.17640200   0.17028200
C    3.13862200   1.37659700  -0.27936500
C    3.57081200   1.22767900  -1.73065700
O    4.41131000   0.02252100  -1.75528400
N    3.83083600  -1.02761600  -1.32916800
C    2.86214300  -1.10811500  -0.51453800
H    0.37992600  -0.17818500   0.21165500
H    2.34614400   0.04821800   1.26401400
H    2.51619400   2.27713700  -0.18003400
H    4.02554500   1.49850400   0.35892000
H    4.23372000   2.01935400  -2.09215600
H    2.72709800   1.07266300  -2.42068500
H    2.35281700  -2.07182000  -0.41039700