18

C    2.91283400  -1.26973400  -0.07631400
C    2.45917800  -0.11034700   0.80053100
C    3.01509200   1.26483900   0.42283600
C    2.55811700   2.40594000   1.31962800
C    4.58877700   1.17795600   0.35886800
N    5.21241800   1.12832700  -0.79072400
O    5.13954000   1.14773200   1.46378600
H    2.36750200  -2.18313900   0.19522200
H    3.98426200  -1.49408900   0.04735000
H    2.71551700  -1.07724100  -1.14260000
H    2.67219700  -0.30871800   1.86265100
H    1.36396900   0.00793200   0.72876100
H    2.78035300   1.49739600  -0.63350300
H    2.75519200   2.19373600   2.37908100
H    1.47275400   2.52416400   1.18975100
H    3.02972800   3.36090900   1.04956700
H    4.68782200   1.14481200  -1.66017900
H    6.22657600   1.04473000  -0.83704500