12

O    1.02303700   0.03306900   0.35711300
S    2.44846500  -0.03822500   0.26586200
O    3.36112800   0.14372100   1.35172800
C    2.99524100  -1.34709200  -0.87463400
C    3.47977300  -0.67549600  -2.10281100
C    3.40724900   0.73231100  -2.08554700
N    2.91740300   1.23070600  -0.97923200
H    2.13188600  -2.00892500  -1.06125400
H    3.78492200  -1.92503700  -0.36396900
H    3.86476700  -1.23603900  -2.95719400
H    3.72449300   1.37937000  -2.90908500
H    2.79416200   2.23162800  -0.79690400