16

C   -1.49897500   0.69557900   0.70674100
C   -1.32788700  -0.32407500  -0.34068000
N   -0.34681900  -1.33464500  -0.15498500
C    0.93246400  -0.79974800  -0.46454900
C    1.60697500   0.04231800   0.53674200
C    0.84181900   0.89937500  -0.43918600
C   -0.56032000   1.19433700  -0.36253500
H   -2.45125400   1.23404600   0.72653100
H   -1.07030200   0.47613200   1.68914200
H   -2.01850900  -0.41180300  -1.18686400
H   -0.38308500  -1.74924400   0.77433500
H    1.43765400  -1.13968100  -1.37554400
H    1.23211700  -0.00833600   1.56336400
H    2.69168500   0.15211800   0.44442000
H    1.40875800   1.40129400  -1.22605600
H   -0.95678300   1.89864300  -1.09688500