16

C    1.20185800  -0.31789600   0.32043300
C    2.61400800  -0.07066200  -0.07555400
N    3.05797000  -0.26968900  -1.38874900
C    3.17735600   1.08951400  -1.08014700
C    4.51336100   1.69881700  -0.66404600
C    5.15757100   2.16089000  -1.88388800
C    5.65561100   2.52544000  -2.92412600
H    0.95901500   0.28813300   1.20538700
H    1.07747300  -1.37452900   0.60955700
H    0.49512700  -0.08351900  -0.48695200
H    3.38738600  -0.17799100   0.69716600
H    2.41042900  -0.58422700  -2.11773700
H    2.50004100   1.76414300  -1.61803100
H    5.13342900   0.95388200  -0.14285100
H    4.32369800   2.53499200   0.02608100
H    6.12138800   2.86070700  -3.83567800