18

C    1.14480600  -0.28463600   0.63599500
C    2.50235100   0.10108600   0.16834100
C    3.43783400  -0.95280300  -0.32599800
C    4.78940800  -0.47803700  -0.67506600
N    5.16120000   0.74311400  -0.51912600
C    4.31406000   1.82577900   0.01179400
C    2.83569500   1.51215600  -0.19803500
H    0.42665300  -0.33534900  -0.20597600
H    0.74372800   0.45082100   1.34930400
H    1.14244400  -1.27241300   1.12017900
H    3.05574400  -1.48719500  -1.22449500
H    3.57606700  -1.77372900   0.40685300
H    5.52922000  -1.17782700  -1.07957600
H    6.12110300   0.98950700  -0.76427800
H    4.55935900   1.93391600   1.07941000
H    4.61666700   2.74968800  -0.49861600
H    2.24221900   2.22319500   0.39410800
H    2.57616900   1.70886500  -1.25883800