17

C    0.35110900  -1.98654200   0.01152300
C    1.79436800  -2.08664800  -0.31092700
C    2.51035400  -3.30885500  -0.13043700
O    2.34435100  -1.02557900  -0.75244000
C    3.76692100  -0.89545500  -1.14212800
C    3.97572700   0.48651300  -1.65065300
C    4.34451400   0.73982000  -2.90549700
H   -0.02233500  -0.97493000  -0.18156300
H    0.18873300  -2.25537600   1.06803500
H   -0.21164700  -2.71761300  -0.59195700
H    1.97579200  -4.18162700   0.25089300
H    3.57404100  -3.40798700  -0.35479200
H    3.96857800  -1.65637700  -1.90998900
H    4.35015000  -1.10242500  -0.23162700
H    3.84461000   1.29767800  -0.92807700
H    4.49142900  -0.05734200  -3.64094200
H    4.52808600   1.76224200  -3.24247700