18

C    1.06362600  -0.10019400   0.01361000
C    2.53736300   0.04387300  -0.11824300
N    3.22997800  -0.39555300  -1.25306700
C    3.35814800   0.99965500  -1.20033300
C    2.71121600   1.83272500  -2.25881700
C    4.62216700   1.59385400  -0.53376300
O    5.54037600   1.87377200  -1.52572000
H    0.67548800   0.67162600   0.69387100
H    0.83255700  -1.07646700   0.47154000
H    0.54291200  -0.03165200  -0.95039800
H    3.12719000   0.08277100   0.80668400
H    2.70499300  -0.82275200  -2.02198100
H    1.79857500   1.37280000  -2.65921000
H    3.42457600   1.99267400  -3.08133300
H    2.46825100   2.82393500  -1.84782600
H    5.00318600   0.90304000   0.23642600
H    4.33151800   2.53694500  -0.04934800
H    6.08692200   1.10245200  -1.71398500