13

C    0.79571000  -0.15203200   0.19441500
S    2.56467200  -0.23237400   0.00834200
O    3.17889800  -0.62788000   1.25636900
O    2.88679000  -0.81779200  -1.28885100
C    3.15771700   1.55245400  -0.18152000
C    3.27810000   1.81557700  -1.67932000
O    3.10033600   2.91535700  -2.07968400
H    0.36305100   0.30706700  -0.70317800
H    0.56861700   0.39723700   1.11650200
H    0.47858200  -1.20211700   0.28127300
H    4.17944000   1.53986100   0.24221000
H    2.53156300   2.27766700   0.36001200
H    3.55044200   0.92674200  -2.31863000