15

O    1.98440100  -0.21387800  -1.31650400
C    2.29924100   0.01424000   0.02158700
C    3.24586200   1.20207000   0.01035800
C    2.66014300   2.47051700  -0.65078000
N    2.83775500   3.16578700   0.59222800
C    3.37610900   2.03819700   1.30535000
H    1.47525400  -1.02486100  -1.41052000
H    2.79683300  -0.84536100   0.50629000
H    1.40245700   0.26168100   0.62727200
H    4.21496600   0.91822300  -0.42150200
H    1.59699700   2.41940200  -0.96301300
H    3.21088500   2.94678400  -1.48420700
H    2.68610000   4.14383900   0.86521700
H    4.38947600   2.24411900   1.69859900
H    2.74352600   1.75450400   2.16936500