15

C    1.04639600  -0.06321200  -0.02870800
C    2.51008800   0.09745200   0.02838200
C    3.25617500   1.20872600  -0.41183300
O    4.52819900   1.09763400  -0.17983900
C    4.79919600  -0.15646100   0.44116300
C    4.56372400  -1.31389900  -0.44633800
C    3.47220900  -0.84877200   0.57655600
H    0.79249800  -0.95302700  -0.62974000
H    0.54241900   0.81446800  -0.45031600
H    0.65372000  -0.25700700   0.98357300
H    2.91724500   2.11765400  -0.91387900
H    5.58630300  -0.09811100   1.19517900
H    5.05096000  -2.25700400  -0.19056400
H    4.38977700  -1.14125200  -1.51191800
H    3.20579200  -1.53834700   1.38009200