15

C    2.33688700  -0.79314200   1.50439200
C    3.56538100  -0.47461700   0.71514000
O    3.99479100  -1.17295600  -0.17095100
C    4.31524900   0.81404600   1.11749200
C    5.18420500   1.35222500   0.00947100
N    5.24311500   2.64257400  -0.22981300
N    5.93493700   0.49081300  -0.64996200
H    2.50884300  -0.63767200   2.57981700
H    2.02705000  -1.82605600   1.30886100
H    1.52902800  -0.10804800   1.19867800
H    4.96933900   0.52569400   1.96061100
H    3.63539700   1.59189400   1.49460900
H    4.70556700   3.30709300   0.31727600
H    5.83689700   3.00818400  -0.97116300
H    5.43560900  -0.36250500  -0.98623200