18

C    2.87742000  -0.91549400  -1.10617100
C    2.43260600  -0.16271000   0.08169100
C    3.06172100   1.60819000   0.00886000
C    2.45793300   2.31555200   1.18632300
C    2.83695100   3.81768900   1.09281900
C    4.47212700   1.44911000  -0.02315700
N    5.62499400   1.27996800  -0.03084300
H    2.38581300  -1.90781800  -0.98061400
H    3.95898900  -1.09658800  -1.14512700
H    2.50326100  -0.51194500  -2.05718800
H    2.86332900  -0.44908000   1.04982400
H    1.36683900   0.09216700   0.13326900
H    2.63906100   1.84326100  -0.98116100
H    2.83330700   1.89867500   2.13204200
H    1.36434800   2.21276000   1.15906300
H    3.92186500   3.96117400   1.18752000
H    2.33677700   4.32927800   1.92772400
H    2.49053000   4.26830100   0.15314500