17

N    1.04976800  -0.14259900   0.31734600
C    2.36948600  -0.21512500   0.20574200
C    3.05381200  -0.72577200  -1.00054400
C    3.38280300   0.65978900  -1.43085600
N    4.57258500   1.19918000  -1.19426800
C    5.95595400   0.85853200  -1.38539300
C    5.40634400   2.20317800  -1.77894700
H    0.61419200   0.33597200   1.09824300
H    0.43020400  -0.57434000  -0.36067700
H    2.96757200   0.15561400   1.04119700
H    2.39069700  -1.25938100  -1.69535300
H    3.94322500  -1.32983600  -0.77810600
H    2.60842500   1.29979600  -1.86259300
H    6.18448900   0.13795500  -2.17803400
H    6.56660000   0.78201500  -0.48089200
H    5.63322600   3.06930500  -1.14981300
H    5.25807400   2.41481500  -2.84304700