12

C    3.31705200  -1.12552200   0.52441000
O    2.57078400   0.09570200   0.25228100
C    3.11415100   1.22146500   0.14204000
N    2.47537100   2.37280300  -0.10711800
C    3.42833800   3.28489500  -0.13788100
C    4.68613300   2.66629600   0.10043800
O    4.45336900   1.35961000   0.27383800
H    2.55870800  -1.91122300   0.55805300
H    3.82678600  -1.02093000   1.48994900
H    4.03026200  -1.29361100  -0.29174700
H    3.23893900   4.34409600  -0.32161900
H    5.71426200   3.02205600   0.16340500