12

C    2.31412300  -0.07084200   0.52658700
O    1.28294600   0.57396300  -0.37620200
C    2.04115300   1.64227600  -0.40489000
C    2.25299300   2.97826000  -0.87895300
N    3.42931400   3.29891100  -0.32350500
C    3.98088600   2.25382600   0.47383400
C    3.09700300   1.22956000   0.40830100
H    2.72400900  -0.95785300   0.02885400
H    1.85238200  -0.29994000   1.49449100
H    1.68168000   3.64833000  -1.51936300
H    3.88646900   4.19850300  -0.45556800
H    4.93618800   2.40688000   0.97311500