20

C    1.46865400   0.74338100  -0.01303300
C    2.88938300   0.21553000  -0.19760500
N    3.83638800   0.84946400   0.68255400
C    4.99430000   1.58701400   0.26627500
C    4.41840000   2.98463100  -0.00863300
C    4.06361900   3.30405200  -1.42810300
C    4.22811400   3.81506200   1.03222300
H    0.79449700   0.19222600  -0.68164900
H    1.41265800   1.81285900  -0.25926100
H    1.11435800   0.59570700   1.01740300
H    3.25246200   0.32581900  -1.22875800
H    2.92218200  -0.86615500   0.04172800
H    3.57330600   0.91454200   1.66958600
H    5.42201800   1.13584100  -0.63940900
H    5.74195800   1.59480700   1.06903800
H    4.95862000   3.25222800  -2.06782400
H    3.63053000   4.30900600  -1.51114500
H    3.33239500   2.58962800  -1.84007100
H    4.49219800   3.53742600   2.05686800
H    3.84141200   4.82607500   0.88006600