17

C    1.28763400  -0.71768400   0.73023300
C    2.76063200  -0.93044000   0.42301600
O    2.91393600  -1.98851600  -0.52217700
C    3.44719100   0.33854200  -0.10338200
C    4.92692400   0.19875200  -0.41563200
C    5.28427900  -0.78998400  -1.48374200
O    4.54724400  -1.64324000  -1.92274200
H    1.18767300   0.03536400   1.52478000
H    0.82521500  -1.64920000   1.08240500
H    0.74146900  -0.35194100  -0.15372100
H    3.29585100  -1.29222900   1.31364300
H    2.26874300  -1.90364200  -1.24567400
H    3.33871900   1.10441000   0.67864800
H    2.90526700   0.71154700  -0.98825800
H    5.52774300  -0.08682400   0.46944300
H    5.35658100   1.15713200  -0.75244400
H    6.30458100  -0.74388400  -1.92473500