17

C    1.07933200   0.30744100  -0.94415700
C    2.53051800   0.44162300  -0.77801700
C    3.14901200   1.28224000   0.14260300
C    4.55812000   1.36047700   0.29169100
O    5.37348500   0.50174700  -0.44861900
C    5.45867900   1.75468800  -0.99233600
C    6.66051000   2.59952200  -0.76689000
H    0.81284200   0.48453900  -2.00211400
H    0.49548000   0.96895200  -0.29312700
H    0.79131900  -0.74484000  -0.76255400
H    3.17959900  -0.18316400  -1.40482400
H    2.54032800   1.90115100   0.80977200
H    4.98067200   1.77670200   1.21334900
H    4.89478500   1.89368300  -1.92586300
H    7.13791000   2.39184100   0.19887500
H    6.41056900   3.66597200  -0.85304500
H    7.37858400   2.36306600  -1.57114900