17

C    2.03838100  -0.55592200   1.00353900
C    2.85045600   0.03969700  -0.14732200
N    3.19444800   1.42797800   0.11078300
C    4.46660200   1.88953100   0.66833500
C    4.22558500   3.39145100   0.80845500
C    2.83384600   3.51548400   0.29794100
N    2.30484700   2.37379500  -0.07490100
H    1.80207600  -1.59917100   0.75576100
H    1.09561200  -0.00917200   1.13892100
H    2.60534500  -0.54809600   1.94498200
H    2.27384800   0.02881000  -1.08325000
H    3.79494200  -0.50023900  -0.29921800
H    5.27810000   1.61882400  -0.02619300
H    4.65008000   1.36301100   1.61916600
H    4.91935800   4.01090600   0.21590300
H    4.29674400   3.75855400   1.84611700
H    2.24808100   4.43359900   0.21347700