17

C    2.45322400   0.77790300  -2.20032100
O    2.60052000   1.96736700  -1.43218300
C    2.73428700   1.79698200  -0.08853300
O    4.12240500   1.55196500   0.26111000
C    4.98322500   2.45298100  -0.24795600
C    6.38805600   2.11410000  -0.13502000
C    7.37878500   3.00356200  -0.49106600
H    2.36637100   1.08512800  -3.24810000
H    1.53806300   0.24113700  -1.90569900
H    3.32356100   0.11259300  -2.07958200
H    2.20021200   0.92498800   0.31529500
H    2.41967100   2.72292000   0.41859900
H    4.81005200   3.50050700   0.13771600
H    4.72941100   2.66952900  -1.33752200
H    6.64766500   1.11623200   0.23742900
H    7.14398600   4.00452500  -0.86860800
H    8.43322100   2.72657600  -0.41239300