17

C    2.72763900  -1.40183900  -0.69018800
C    2.04190100  -0.10017300  -0.29530300
C    2.96735400   0.97298700   0.24216800
C    3.76669400   0.69300000   1.47263800
C    3.58700000   1.89400900  -1.02524100
N    2.67813200   2.31550200  -0.06591600
H    1.97618200  -2.11321400  -1.05637900
H    3.24049200  -1.87662200   0.15759700
H    3.45887300  -1.24489500  -1.49705600
H    1.32727000  -0.27677100   0.52938300
H    1.45118000   0.31099500  -1.12689200
H    4.40411300   1.53721500   1.76643200
H    4.40423100  -0.18766700   1.30300800
H    3.09006200   0.44584400   2.30659300
H    3.21099200   1.42856100  -1.94188000
H    4.57505500   2.36476600  -1.05804400
H    2.95725100   3.05496900   0.58568900