21

C    1.14877100   3.10493200  -0.95568700
C    2.61331700   3.05912800  -0.53925500
C    3.17549200   1.62657200  -0.54901000
C    4.54708500   1.49349700  -0.03331700
C    5.59109200   0.62291000  -0.61923300
C    5.88573800   1.93767500  -1.23285300
C    6.89930100   2.88334500  -0.73889300
H    0.78214500   4.14015200  -0.95511400
H    0.51820100   2.52508600  -0.26539100
H    1.00559400   2.70024700  -1.96871000
H    2.73637600   3.48690000   0.46902300
H    3.21766600   3.68147300  -1.22009000
H    3.07140700   1.14901900  -1.53648300
H    2.56746700   1.00994900   0.15078900
H    4.78624300   2.00397000   0.90786100
H    5.21160500  -0.13340900  -1.31650500
H    6.34887800   0.27103900   0.09050800
H    5.38991300   2.16987800  -2.18242500
H    7.27096600   2.64167600   0.26515400
H    6.54349500   3.92473700  -0.78436400
H    7.75346600   2.83229600  -1.44394100