13

C    0.96122400  -0.03019900  -0.00200300
C    2.40359000   0.02564200  -0.00036600
C    3.62489800   0.06544700   0.00150600
C    5.01120900   0.07558100   0.00198300
C    5.77541400   1.22777000   0.04459700
C    7.17362200   1.09725500   0.04013400
O    8.00973000   2.01084100   0.07354000
H    0.51837400   0.97503000   0.00936700
H    0.61635300  -0.59213800   0.88075400
H    0.61517500  -0.57478000  -0.89486500
H    5.51301000  -0.90168600  -0.03376800
H    5.33376800   2.22540800   0.08127600
H    7.65741400   0.09032700   0.00288500