13

C    1.07462400   0.03886300  -0.05484500
C    2.56605500   0.16704000  -0.03416900
O    3.30788000  -0.79246200  -0.07563000
C    3.22307200   1.52064100   0.04043700
C    2.64404500   2.72660500   0.09602600
C    4.69995800   1.27154300   0.04178200
O    5.59540600   2.03033900   0.08852300
H    0.67707100   0.58177000  -0.92598700
H    0.65997900   0.49195600   0.85863700
H    0.79449900  -1.01853500  -0.11074200
H    1.55478700   2.83296400   0.09118000
H    3.23922800   3.64319500   0.14804800
H    4.80948400   0.10258600  -0.01622800