15

C    1.19578800   0.46807800   0.88992500
C    2.37984200   0.24710200   0.24633500
C    3.22866500   1.39321500  -0.27547500
O    2.58927400   2.59424700  -0.31554000
C    3.34318100   3.52946600   0.45531300
C    3.92750800   2.63938300   1.54585700
O    4.07350200   1.38188200   0.86196300
H    0.55233800  -0.37484200   1.15969600
H    0.83678200   1.48212100   1.08797400
H    2.81402100  -0.75148900   0.14377900
H    3.80765600   1.13994500  -1.18014600
H    4.12435700   3.99656900  -0.16523400
H    2.66230600   4.30217500   0.82969000
H    4.93159800   2.91385200   1.89783800
H    3.27075600   2.49904400   2.41824200