15

C    0.79322200   0.33903000  -0.18319800
N    2.24811600   0.28283300  -0.14801200
C    3.04400900   1.29831400   0.05525400
C    4.46255700   1.19509200   0.08491500
C    5.21766000  -0.07736100  -0.11306200
C    5.16255200   2.40588100   0.27053300
N    5.74187900   3.40327700   0.42695800
H    0.38729100  -0.31755700   0.59914600
H    0.44153400  -0.01122600  -1.16375500
H    0.45825400   1.36870100  -0.01452000
H    2.66776100  -0.63654000  -0.29779500
H    2.57379100   2.27547900   0.20806300
H    4.70232800  -0.94311700   0.32915500
H    6.21796100  -0.00886900   0.33275600
H    5.35353600  -0.26617200  -1.19358900