16

C    0.85317200  -0.04436500   0.03852500
C    2.37367800  -0.12367700  -0.00488700
C    3.03543300   0.08000600   1.35170100
C    2.93827800  -1.27737900  -0.83427200
C    3.57521000  -0.58881300  -1.95965300
N    3.46397200   0.73629600  -1.89986300
O    2.80794500   1.05186900  -0.83796600
H    0.41603000  -0.12052800  -0.96682300
H    0.53004500   0.89607800   0.50332800
H    0.48348000  -0.88018600   0.64958400
H    4.13117100   0.09119800   1.26891700
H    2.73840000  -0.75158500   2.00661400
H    2.69739800   1.01959800   1.80756000
H    2.17374400  -1.98787900  -1.20287400
H    3.67852900  -1.90178700  -0.29826000
H    4.10936900  -1.02793500  -2.80729800