19

C    2.35953300  -0.88849900   0.48605200
O    1.94434300   0.29663500  -0.17386900
C    2.62729600   1.46671100  -0.04687100
C    2.20764800   2.39396300  -1.24840800
C    2.17476800   2.18500000   1.28010400
O    3.98378400   1.36510000  -0.01543600
C    4.68484500   0.44365200  -0.83523700
H    1.44315500  -1.40131300   0.80238900
H    3.00810500  -0.65279500   1.34418800
H    2.90263300  -1.54176000  -0.21617700
H    2.56282400   1.92837700  -2.17697800
H    2.66072500   3.38166500  -1.11489800
H    1.11311200   2.45453200  -1.24589400
H    2.41625400   1.52465100   2.12313900
H    1.09755600   2.37545200   1.23566800
H    2.74193600   3.12029100   1.35265300
H    4.96067100  -0.44896600  -0.25050100
H    5.60393600   0.95135500  -1.15191000
H    4.07158500   0.14151100  -1.69853200