16

C    0.71027300   0.87126800  -0.19091400
C    1.83932600   0.02257000   0.22985100
N    2.75231100   0.38777200   1.05095400
C    3.92766900  -0.45023300   1.50433400
C    3.90758700  -1.84432600   1.03860800
N    4.19515100  -2.13530100  -0.27821100
H   -0.23025400   0.35436300   0.05931100
H    0.72297600   0.96411100  -1.28863700
H    0.71771100   1.86832400   0.26785800
H    1.94175900  -0.99450500  -0.17135700
H    2.70981300   1.33725000   1.43111000
H    4.81445200   0.10665300   1.15477200
H    3.91379000  -0.40000100   2.60187200
H    3.43364800  -2.62316700   1.63683500
H    4.89619300  -1.56795800  -0.74773300
H    4.27253900  -3.11804700  -0.51907500