13

C    1.16632200   0.03331600   0.00562600
C    2.61589000  -0.03908100  -0.00093900
N    3.49874100   0.99846200   0.00077300
N    4.69218300   0.49929100  -0.00632400
C    4.57338500  -0.85784000  -0.01226000
C    5.64281900  -1.83902600  -0.02294100
O    3.28076100  -1.19886200  -0.00920800
H    0.70463800  -0.95947600  -0.00241900
H    0.83916000   0.63157600  -0.86446100
H    0.84662500   0.61277000   0.89126300
H    5.26027900  -2.86487200  -0.01013900
H    6.30509900  -1.64897900   0.84128900
H    6.27305000  -1.66265500  -0.91422900