13

O    1.50472800   0.23113100   0.94766200
C    2.47598200   0.04036200   0.30415100
C    3.02324000  -1.30832700  -0.21591700
O    4.39470800  -1.05235000  -0.38498100
C    4.68239700   0.23134800  -0.60326600
C    3.80003000   1.04188000  -1.58979900
C    3.42875500   1.11987300  -0.17511400
H    2.52527200  -1.53413100  -1.17726600
H    2.89703800  -2.15576300   0.46987500
H    5.72298500   0.50081300  -0.40759600
H    4.27883100   1.91575500  -2.03871800
H    3.23748600   0.40758400  -2.28456200
H    3.56080000   2.03826200   0.40548300