14

N    2.07357600  -0.60417100  -1.07954900
C    2.50741100   0.02647100   0.06012200
C    3.33095400   1.44627800  -0.28267800
C    2.45220600   2.63034300  -0.67733600
C    2.83936100   3.12693100   0.71173800
O    2.64493700   4.01827700   1.44082400
O    3.68160200   2.00859100   0.92972000
H    1.15427600  -0.41738800  -1.48202700
H    2.67762800  -1.23767800  -1.60573600
H    3.26636000  -0.55475700   0.60312600
H    1.67406000   0.34951900   0.69878700
H    4.18826100   1.14116600  -0.89923000
H    1.37825100   2.46632500  -0.84109200
H    2.85904400   3.25451600  -1.48612800