15

O    2.82904900  -0.81143500  -0.74228700
C    2.29424700   0.17655200   0.07615100
C    3.31634300   1.31143000   0.00927600
C    3.59541600   1.82970700  -1.40398400
C    3.09699000   3.21416200  -1.36809800
C    2.64247800   3.47758400  -0.06981000
O    2.76703100   2.46868100   0.71695400
H    2.34816500  -1.63798800  -0.63319100
H    2.16920100  -0.13542500   1.12729900
H    1.31783100   0.55679500  -0.28665500
H    4.22552200   1.03347500   0.56110300
H    3.10226500   1.21859200  -2.18410700
H    4.66810700   1.80595800  -1.67710000
H    3.08684400   3.92913600  -2.19249300
H    2.21693400   4.39343700   0.34919500