12

C    0.95261200  -0.11711300  -0.05715200
C    2.47045300   0.07542300   0.08861900
C    2.85128600   1.50467900   0.00864700
N    3.44837800   2.11584400   0.95312300
O    4.12832800   3.20064100   0.94776600
H    0.73521700  -1.19280400  -0.04789400
H    0.57774100   0.29668700  -1.00400900
H    0.40943000   0.34823700   0.77632900
H    2.98808100  -0.40928500  -0.75979900
H    2.85943300  -0.36644500   1.01592100
H    2.55939300   2.11933900  -0.86300500
H    3.89967800   3.72393300   1.74617300