14

C   -1.70945700   0.68635900   0.59989000
C   -1.04895500  -0.35066500  -0.30597600
C    0.09763000  -1.19620800   0.20802800
O    1.22434000  -1.08503000  -0.61941200
C    1.21232700  -0.28545800   0.51942000
C    0.78499700   1.17542600   0.21583600
N   -0.57718700   0.99040600  -0.21312900
H   -2.67328600   1.06101100   0.23763100
H   -1.54962500   0.71677700   1.68403600
H   -1.61469100  -0.66753800  -1.19105400
H   -0.10072400  -2.16496600   0.67801600
H    1.98899300  -0.45060900   1.27338600
H    0.84112900   1.85934400   1.07282000
H    1.38494700   1.56648100  -0.62237300