16

C    0.88387600  -0.15204900  -0.12791500
C    2.32838700   0.20754600   0.18319900
C    3.53300500  -0.68653400  -0.39870300
N    4.25052400   0.57174600  -0.15816700
C    3.10144400   1.30777100  -0.70035200
C    2.98325600   0.69707400  -2.09030700
C    3.26318100  -0.59630900  -1.89467500
H    0.24093800   0.67889300   0.19393400
H    0.61327700  -1.04308100   0.45539400
H    0.71236000  -0.35065100  -1.19181700
H    2.45179500   0.39706600   1.25958500
H    3.90609400  -1.59765600   0.07697200
H    4.69889700   0.80422300   0.73745400
H    3.04419400   2.38562700  -0.52554700
H    2.70818800   1.23424600  -2.99563400
H    3.28496900  -1.43079100  -2.59252800