14

C    0.91446600  -0.09612000   0.15341800
C    2.34517600  -0.30752800  -0.19736900
N    2.71918200  -1.30001300  -0.95247100
C    3.34568700   0.60455200   0.30780400
C    4.79671700   0.45037800  -0.00570800
O    5.63498600   1.32731000   0.49686200
O    5.17962100  -0.46073800  -0.70435900
H    0.79637700  -0.11723300   1.24800200
H    0.26059800  -0.85584600  -0.29217200
H    0.59413200   0.89996700  -0.18967500
H    2.04329200  -1.96379600  -1.32739500
H    3.73424000  -1.38821600  -1.15752700
H    2.99115000   1.42492000   0.93859000
H    5.22761200   2.01393200   1.03957000