10

N    1.01897300   0.05484400  -0.00000000
C    2.32910700   0.01618000   0.00000000
C    3.06654800  -1.21042200   0.00000000
C    2.40218700  -2.43877400  -0.00000000
N    1.79501300  -3.43508200  -0.00000000
C    3.05602800   1.25380500   0.00000000
N    3.64728600   2.24718200   0.00000000
H    0.51391000   0.94297600  -0.00000000
H    0.46160500  -0.80392400  -0.00000000
H    4.16085600  -1.18003500   0.00000000