13

C    0.99076500  -0.00816300   0.10070900
C    2.44857800   0.05320000  -0.04554300
C    3.32445600  -1.04393600  -0.22782700
O    4.56274200  -0.71694900  -0.32915400
C    4.70063500   0.76959000  -0.21952400
O    5.75474700   1.25133500  -0.28915200
C    3.29164800   1.27642600  -0.03125500
H    0.60296900  -1.03288200   0.05526600
H    0.50971700   0.60242800  -0.68479200
H    0.69070900   0.45660700   1.05738000
H    3.06820600  -2.10641400  -0.28974100
H    3.03322500   1.98851800  -0.83597100
H    3.21471100   1.84300800   0.91451400