19

C    1.09971900  -0.50905300   1.15298600
C    0.90148300   0.64553300   0.19265900
N    1.73251700   1.81951000   0.49848000
C    1.87887700   2.86935100  -0.49902900
N    1.88625400   2.16396600   1.76229700
C    2.89247500   1.94982400   2.51306900
C    2.92415300   2.38722300   3.92403000
H    0.49164200  -1.35530400   0.80666600
H    0.77012400  -0.26054700   2.17106300
H    2.14763900  -0.84125200   1.17755900
H   -0.14942100   0.98699500   0.18256600
H    1.16094600   0.36592100  -0.83848200
H    2.12988900   2.40312100  -1.45982700
H    2.67362300   3.55817300  -0.18936000
H    0.93115700   3.42356500  -0.60026900
H    3.76667700   1.42354800   2.09527900
H    1.99966300   2.89969800   4.21394600
H    3.78942900   3.05144600   4.07644800
H    3.08893100   1.50935100   4.56859100