8

O    0.97169500  -0.07609300  -0.01135600
C    2.31607600   0.03884100  -0.00085800
C    2.82335100   1.36847300  -0.00061800
C    3.31804000   2.49740600   0.00007900
H    0.69121700  -1.00480000  -0.01088800
H    2.83204700  -0.49857600  -0.85174800
H    2.81827500  -0.49371400   0.86123800
H    3.74824100   3.49259100   0.00065100