14

C    0.76917500   1.34751900  -0.53541200
C   -0.46101100   1.02548700   0.21781700
C   -1.32991300  -0.05074900  -0.32839900
O   -0.52552000  -0.95586000  -1.02625000
C    0.66269100  -1.17193400  -0.32287500
C    1.12926500   0.13067100   0.22225400
H    0.66945800   1.16491400  -1.61850000
H    1.28459000   2.26499700  -0.23976500
H   -0.73750200   1.57968300   1.12063700
H   -1.89979600  -0.55273800   0.47945400
H   -2.08003800   0.38104600  -1.01931600
H    0.52604400  -1.91772500   0.48613900
H    1.42403700  -1.59053800  -1.00962900
H    1.74265900   0.18412600   1.12754700