15

C    0.78982000   0.80864900  -0.40532700
C    2.27135900   0.44105400  -0.30538000
C    3.02752800   1.41978200   0.53117300
O    4.46160400   1.41227900   0.43498300
C    3.86872600   2.51533400  -0.04409000
C    3.91485600   3.80281600   0.91585700
O    3.89431000   4.88157500   0.46345400
H    0.26468400   0.05268600  -1.00296300
H    0.64514600   1.78241100  -0.89556300
H    0.31070300   0.83992200   0.58408300
H    2.74140500   0.37308200  -1.29848300
H    2.38753800  -0.54948600   0.16766900
H    2.66927700   1.59608500   1.55701000
H    4.04629600   2.80664300  -1.08862300
H    3.95131300   3.54923900   2.00450900