15

C    0.90446200   0.06302800   0.19138800
C    2.41249500   0.00993300   0.05318200
C    3.26134400   1.09635500   0.77498200
C    3.88971600   0.00519500   1.61899100
O    4.67333100  -0.17800800   2.48069100
N    3.08297600  -0.98652900   0.92664000
N    2.98830000  -2.27009500   1.07763100
H    0.42850700  -0.84267100  -0.21102000
H    0.53034600   0.91589100  -0.39192700
H    0.60080700   0.19878300   1.23925300
H    2.72252200  -0.15783400  -0.99096000
H    2.68258300   1.81830900   1.36922900
H    3.98457300   1.63529800   0.14751800
H    2.35282400  -2.81111500   0.49296000
H    3.57636900  -2.70944900   1.78905900