14

O    3.18617000  -1.16570600  -0.35574300
C    2.24063000  -0.27048300   0.12194200
C    2.87200700   1.13555700   0.07738900
C    4.30139800   1.15674700   0.30597900
C    4.98587400   2.23284900   0.90087200
C    6.37459100   2.20441600   1.04020400
N    7.53849200   2.17192800   1.15515400
H    2.77475500  -1.99028200  -0.63646700
H    1.97359800  -0.46610300   1.17920100
H    1.30524700  -0.26769000  -0.46090000
H    2.31225500   1.89633600   0.63980800
H    2.83760300   1.44850700  -1.00206400
H    4.87417800   0.28982000  -0.04987400
H    4.45094100   3.11582100   1.27186900