17

C    3.12012900  -1.26671600   1.64718200
C    2.96715900  -0.94378300   0.18589200
C    2.62099300  -1.83424700  -0.74990900
C    3.21043700   0.49568600  -0.20895800
N    4.63360200   0.81714100  -0.01752300
N    5.11360200   1.71625800   0.76875400
C    4.73177700   2.05075100   1.93947900
H    2.44151400  -0.65003000   2.26007100
H    4.15140800  -1.09241900   1.99973500
H    2.88573900  -2.31950600   1.84863100
H    2.40608500  -2.87271900  -0.48633000
H    2.51780600  -1.56005500  -1.80316900
H    2.63597200   1.20804000   0.40281100
H    2.97358100   0.67357800  -1.26838500
H    5.32789200   0.33662800  -0.59782100
H    5.10653200   2.99506700   2.34681400
H    4.08513900   1.40008700   2.54723100