15

C    1.44381100   3.20635700  -0.58571000
C    2.58302100   2.39532300  -0.10702700
N    3.79173900   2.69975900  -0.37224700
N    4.89823100   2.13145600  -0.05332100
C    6.10639300   2.46528800  -0.33815300
C    7.23416300   1.69394300   0.11442600
C    8.48296800   2.07545800  -0.20402500
H    0.85315800   3.54072200   0.28210200
H    0.77902800   2.56780700  -1.18919600
H    1.76963800   4.07144900  -1.17438200
H    2.40256000   1.49396500   0.50001300
H    6.26518000   3.36935500  -0.94603100
H    7.03781200   0.80292800   0.71567300
H    8.67974600   2.96767300  -0.80613100
H    9.34950400   1.50137300   0.13130000