14

C   -0.82533700  -1.02830500  -0.18081100
C   -1.20370900   0.39766300   0.24469500
C   -0.01188200   1.23629600  -0.22460000
N    1.08497100   0.31184000  -0.20232600
C    0.69641600  -1.05646400  -0.01479100
H   -1.31750200  -1.80179100   0.42051400
H   -1.08437800  -1.20882500  -1.23498300
H   -1.29828600   0.47201400   1.33857000
H   -2.14659400   0.74283700  -0.19565200
H   -0.11847500   1.58555600  -1.27610500
H    0.23467800   2.13515900   0.36583900
H    2.06142200   0.60340900  -0.30995500
H    1.26516100  -1.71102100  -0.69709100
H    1.01258600  -1.34398800   1.01289600