16

N    3.14325400  -0.86404900  -0.75254600
C    2.20765700   0.13957200  -0.33199900
C    2.84574300   1.45784300  -0.11344700
C    2.29079600   2.57803700   0.53506500
C    3.19883200   3.64846400   0.47320300
C    4.34669800   3.23603100  -0.20338000
C    4.20431600   1.81415600  -0.61301500
H    2.71592800  -1.56754100  -1.34701900
H    3.57718700  -1.34298600   0.03261900
H    1.58659500  -0.10366700   0.55688000
H    1.45699100   0.31910200  -1.13027300
H    1.30744200   2.60712400   1.00750900
H    3.03122500   4.64386200   0.88616100
H    5.22148400   3.85665600  -0.40672200
H    4.28929200   1.65267000  -1.70357500
H    4.98505200   1.15801700  -0.18740000