15

C    1.11291400  -0.05509700   0.21116600
N    2.52130200  -0.00163000  -0.13269700
C    3.27324900   1.26076000  -0.20555300
C    4.64088100   0.81467600  -0.75291500
N    4.58902700  -0.63359000  -0.52953300
C    3.35045400  -1.02721800  -0.25266300
S    2.88613200  -2.68158000  -0.06787500
H    0.70573100  -1.04224400  -0.05037100
H    0.57433500   0.70728000  -0.36634400
H    0.96120100   0.12924600   1.28537900
H    3.33883200   1.70891200   0.79878100
H    2.75713800   1.96603000  -0.87063000
H    4.75689000   1.03022100  -1.82581000
H    5.48224700   1.26116500  -0.20867200
H    5.37042100  -1.26456200  -0.66596900