17

C    0.68705700  -0.22116000  -0.18243700
C    2.16702000  -0.51928200  -0.06392300
N    2.66247400  -1.40268900  -0.98676700
C    3.05528400   0.96860500  -0.17396200
O    2.85272700   1.59116300  -1.34471100
N    1.74745700   2.45213900  -1.30270000
C    1.67290300   3.13303500  -2.36999100
H    0.39458100   0.59327800   0.49035200
H    0.12299700  -1.12455300   0.09228200
H    0.41085900   0.06949500  -1.20593000
H    2.48978200  -0.79729000   0.95282600
H    2.25783200  -1.46854700  -1.91840600
H    3.52398400  -1.91871400  -0.82652800
H    4.10648100   0.66984700  -0.09215900
H    2.66771200   1.52348400   0.69380800
H    0.83976900   3.83761400  -2.43305900
H    2.39748800   3.04415100  -3.18924100