15

C    0.93115300   0.00228500  -0.05177900
C    2.28321000   0.12861800  -0.12004800
C    2.94110900   1.38438700  -0.11497400
N    4.28141200   1.42304000  -0.18544800
N    4.65831200   2.64974500  -0.16620100
C    3.60005300   3.65635400  -0.07713000
C    2.35053900   2.76809600  -0.03899400
H    0.46099400  -0.98352000  -0.05812600
H    0.26656400   0.86850400   0.01152300
H    2.92648200  -0.75276400  -0.18266600
H    5.65922100   2.84943400  -0.21345300
H    3.65648100   4.32223400  -0.95152900
H    3.75158500   4.26469200   0.82737800
H    1.67126200   2.95547800  -0.88444100
H    1.76562700   2.89869400   0.88410600