19

C    0.71413400  -0.33669800   0.63614000
C    2.15651800  -0.43382000   0.10929500
C    2.50420600  -1.86487700  -0.29174300
C    2.26170700   0.57356300  -1.02634400
C    3.68984200   0.51407600  -1.82814900
C    4.76225100   0.78293600  -0.96534000
C    5.68839200   1.02802400  -0.17461100
H    0.45182600   0.68960600   0.92908800
H    0.61198700  -0.98168100   1.52180200
H   -0.01241800  -0.68245500  -0.11511700
H    2.84363000  -0.11353400   0.91374300
H    1.89584700  -2.19729800  -1.14822600
H    2.30661800  -2.55441800   0.54044100
H    3.56930600  -1.98183600  -0.54912200
H    2.13919600   1.60998100  -0.68290400
H    1.53652400   0.37787300  -1.83148600
H    3.59254700   1.31014700  -2.58660900
H    3.76624800  -0.48983200  -2.27307800
H    6.50536000   1.24306600   0.50319200