13

N    2.92580600  -0.71499500  -1.00690300
C    2.10835200   0.11385900  -0.23464900
C    2.70525900   1.46787600  -0.06418900
C    2.17851600   2.53121800   0.63103700
S    3.25194800   3.85778700   0.52287000
C    4.32027500   2.90175100  -0.43767500
N    3.90926500   1.68740100  -0.66077100
H    2.67664300  -1.67915900  -1.22706800
H    3.80762900  -0.29699100  -1.34743700
H    1.89783800  -0.38437300   0.74393700
H    1.08789200   0.15307200  -0.68995800
H    1.24056500   2.59165900   1.18222900
H    5.26077000   3.30868000  -0.81544000