17

C    4.34238100  -0.98457100   0.02633400
C    3.04653400  -0.13577000   0.00731800
O    2.05612600  -0.63500300   0.83540700
C    3.32345000   1.25008200   0.43048400
C    4.12672700   2.14575800  -0.26962000
C    4.35624500   3.45152600   0.20164500
C    5.14680100   4.34991200  -0.48725200
H    5.11342000  -0.58020400  -0.64343700
H    4.09407100  -1.99759200  -0.32059400
H    4.73696700  -1.04676500   1.04924200
H    2.71509900  -0.07433900  -1.05758700
H    1.86706200  -1.55400500   0.61953700
H    2.84967800   1.57073200   1.36757500
H    4.58762500   1.83209000  -1.21346100
H    3.89024800   3.76114700   1.14295500
H    5.62629900   4.07569300  -1.43191200
H    5.31501300   5.36078200  -0.10745300