18

C    1.11537300  -0.38959700   0.16195300
N    2.35564200  -0.08071200  -0.46364100
C    3.10918300  -0.42030700  -1.61914800
C    3.04222700   0.99758800  -1.08485700
C    4.25473200   1.62409000  -0.39609000
C    5.14597500   2.28725600  -1.40941100
C    5.33414300   3.60375000  -1.48147600
H    0.97549100   0.25125400   1.04223900
H    1.08498000  -1.45645800   0.42050600
H    0.30236300  -0.17943800  -0.56266200
H    2.52870600  -0.75147300  -2.48902100
H    4.03959400  -0.97457000  -1.43438700
H    2.37128100   1.71748400  -1.57522900
H    4.79791700   0.83794200   0.15311000
H    3.88516300   2.35400900   0.33998500
H    5.66507800   1.62409200  -2.11065400
H    4.84332900   4.29722800  -0.79155600
H    6.00355000   4.03780400  -2.22721500