15

N    1.88800200  -0.29681700  -1.41283100
N    1.95320500   0.56029600  -0.42994700
C    0.79894400   0.61004200   0.43226700
O   -0.13663900  -0.08350000   0.19486800
C    3.16086200   1.31115900  -0.18623800
C    3.69791700   2.21177300  -1.26918400
C    3.06288900   2.80509700  -0.05084700
H    2.67276700  -0.37646300  -2.05706500
H    1.01850800  -0.83538200  -1.49335100
H    0.92456200   1.32760600   1.26321000
H    3.86388100   0.76136200   0.44974800
H    3.14050900   2.28468300  -2.20725600
H    4.78353600   2.24770700  -1.37839000
H    3.69220200   3.26844200   0.71129200
H    2.08315200   3.27310700  -0.18029400