16

C    1.64765400  -0.11116000  -1.15781300
C    2.57662800  -0.10751400  -0.17139800
C    3.61064400   0.87823500  -0.01758800
N    3.92861000   1.86379200  -0.96688000
C    3.23528800   2.62699700  -0.00993400
C    3.90908400   3.31629900   1.05082800
C    3.23492600   4.13801100   1.88838000
H    0.90127200  -0.90631500  -1.21669100
H    1.58525300   0.66461500  -1.92809600
H    2.57391800  -0.90652200   0.57421800
H    4.34605100   0.73693000   0.77955800
H    3.44077600   1.76243300  -1.85820200
H    2.17859700   2.85700700  -0.20110900
H    4.98845100   3.16618800   1.15010400
H    2.15547700   4.29192600   1.79940200
H    3.75679500   4.69050700   2.67269000