14

C    0.95038400  -0.15062500  -0.07812500
C    2.40620400   0.05642100  -0.11919600
C    3.07335400   1.24937800   0.00519700
C    2.49471200   2.62054500   0.21840400
C    4.49757900   1.11853100  -0.07812800
O    5.31654400   2.02972500   0.00377300
H    0.71911300  -0.87062900   0.72634100
H    0.63584100  -0.64974800  -1.01114000
H    0.36352600   0.76192300   0.06748100
H    3.00319800  -0.85230600  -0.26667700
H    1.40030600   2.59437000   0.18977000
H    2.83837700   3.31469800  -0.56268100
H    2.80026400   3.02503300   1.19499400
H    4.97705500   0.11956900  -0.22910500