14

C    1.06766000   0.06047300   0.06506800
C    2.54190300   0.04800400  -0.04427700
N    3.25664300  -1.08224200  -0.21852700
C    4.63866400  -0.72747000  -0.28170200
C    4.72788100   0.79646100  -0.12383500
N    3.31924700   1.12018100   0.01436600
H    0.77036900  -0.58131300   0.90800300
H    0.64213000  -0.39177400  -0.84336200
H    0.66347200   1.06974100   0.20378600
H    5.18428000  -1.29322600   0.49769500
H    5.05710100  -1.10637200  -1.23385700
H    5.15160100   1.31750400  -0.99714900
H    5.28112300   1.12685400   0.76973600
H    2.96658900   2.06896000   0.14257500