15

C    1.06559700   0.01925800   0.20045400
C    2.50408200  -0.02144100  -0.00156900
C    3.70292900  -0.07908300  -0.17325300
C    5.14422600  -0.11102500  -0.37564200
N    5.62408100   1.26515700  -0.26204500
C    6.42712700   1.75009800   0.68883900
N    6.67536400   3.03359500   0.64426700
H    0.70127800   1.05465400   0.12528100
H    0.80293600  -0.36946300   1.19453600
H    0.55410300  -0.58258300  -0.56419200
H    5.41256200  -0.48053500  -1.38034600
H    5.66813200  -0.73059800   0.36706600
H    5.24974700   1.95997500  -0.92124700
H    6.81435000   1.03083600   1.42536700
H    7.34035200   3.32632100   1.36945200