13

C    0.94425900   0.05561200  -0.01262600
C    2.43263800   0.00424800  -0.00249700
C    3.29571000   1.08989000  -0.00161600
N    4.59449200   0.74737600   0.00862000
S    4.92399400  -0.89283800   0.01823100
C    3.18267300  -1.23350100   0.00812300
N    2.82741000  -2.47121100   0.01137800
H    0.58177000   1.09056200  -0.02067500
H    0.53175400  -0.44526700   0.87737700
H    0.54351000  -0.45500700  -0.90245600
H    3.02364800   2.14665700  -0.00824700
H    5.35695800   1.42699100   0.01035800
H    1.80960100  -2.59493100   0.00519200