15

O    0.81673500   0.32104800  -0.25703700
C    1.98885300  -0.00374000   0.20812500
C    2.99927700  -0.83198000  -0.49879500
C    2.62246900  -1.38149500  -1.87795400
C    2.70643400  -0.15445500  -2.80365200
O    3.42842100   0.85070900  -2.04833600
C    3.63315800   0.47283500  -0.82715800
H    0.54674600  -0.18130800  -1.04023000
H    2.18597800   0.37649900   1.21494600
H    3.56493800  -1.49630100   0.16865800
H    3.35782400  -2.14483500  -2.16253200
H    1.63750600  -1.87172100  -1.90140700
H    3.26999900  -0.32994200  -3.72776300
H    1.73773200   0.29074000  -3.07276100
H    4.26915600   1.10279900  -0.20109900