17

O    0.84013200  -0.07869800   0.46569300
C    2.15860700  -0.00054500   0.12887300
C    2.92686900   1.11158500   0.83915200
C    4.05722400   0.12898900   1.11875600
C    3.06108000  -1.13626900   0.71548100
C    5.21678100   0.02955500   0.26655100
C    5.44870700   0.79329000  -0.86029200
H    0.40270300  -0.80668500   0.00523700
H    2.34089400   0.02976600  -0.96865600
H    2.40606300   1.38939000   1.76499800
H    3.14911700   2.02287000   0.27074800
H    4.30550700  -0.05324700   2.17800500
H    3.46031700  -1.89417000   0.03055300
H    2.66078400  -1.58894400   1.63174000
H    5.95052500  -0.74094900   0.52954800
H    4.74864900   1.56601300  -1.18955100
H    6.36154800   0.65762800  -1.44603800