15

N    2.87604100  -0.81136900  -2.27278400
C    3.19183500  -0.46137700  -1.21941200
C    3.60522500   0.04491800   0.08661400
C    4.42534200   1.33311700  -0.12369700
C    3.74003100   2.60707300  -0.67593900
C    4.18622000   3.31408200   0.61942600
N    4.74301100   2.07227600   1.07632500
H    4.20516300  -0.71711700   0.60743000
H    2.71060000   0.25410500   0.69332200
H    5.37144200   1.07064300  -0.64235400
H    2.65218900   2.51332600  -0.78776600
H    4.16862800   3.00153700  -1.60412200
H    4.95622500   4.10733300   0.54532900
H    3.40518000   3.69709000   1.30573200
H    5.21274500   1.80633200   1.95064800