18

C    0.07673900   1.26811200   1.02773800
C    1.24453000   0.45025000   0.48897200
C    2.27931800   1.36513800  -0.19892000
N    3.38787500   0.62570700  -0.72283500
C    4.73088200   0.86490500  -0.39770200
C    5.06947700   0.53560400   1.12041100
O    4.24903800   0.45643400   1.96679300
H   -0.64572200   0.60124200   1.51699500
H   -0.44962000   1.80440300   0.22448000
H    0.41044100   2.00223800   1.77544200
H    0.88592600  -0.29521300  -0.23970000
H    1.74662200  -0.08962600   1.30428600
H    2.65952100   2.14589400   0.47470900
H    1.78825800   1.87036700  -1.05691600
H    3.16747200  -0.21935400  -1.25657300
H    4.96821100   1.94342300  -0.47070600
H    5.40976200   0.29190500  -1.04311200
H    6.16634200   0.43213700   1.28437400