15

C    5.35165400  -0.88847100  -1.18762300
O    5.68570200   0.30440600  -0.45462200
N    4.80759500   1.25081000  -0.53811200
C    5.20760900   2.33499600   0.11102700
C    4.33583400   3.45482600   0.13106000
C    4.04772300   4.03519400   1.60569500
N    4.83444800   4.71167300   0.66172100
H    5.66272900  -1.72627200  -0.55358700
H    5.94136100  -0.87628000  -2.11488100
H    4.27577000  -0.89625900  -1.39553500
H    6.16823500   2.35004500   0.64570100
H    3.47489400   3.43646000  -0.54487600
H    4.56739700   3.52018400   2.41900500
H    3.00527000   4.31928300   1.79100200
H    4.34967300   5.49971400   0.22832500