17

C    1.16843500  -0.45259000  -0.37843200
C    2.61338300  -0.49322000   0.01119900
N    3.30215400  -1.50459100   0.37689500
N    3.28043400   0.73641200  -0.02971900
C    4.65459500   0.90932900   0.03560600
C    5.30690700   0.50452800   1.55903000
O    5.59698300  -0.79255500   1.57312100
H    1.06900100  -0.13923700  -1.42863500
H    0.61564400   0.26599300   0.24600400
H    0.70731000  -1.43987900  -0.25947400
H    2.75744900  -2.36777100   0.40647800
H    2.69400400   1.56876400   0.00673800
H    4.92233300   1.95932100  -0.12802500
H    5.20558400   0.21645200  -0.61409500
H    4.52231900   0.83670500   2.26139400
H    6.22068300   1.11107000   1.62082400
H    4.77170900  -1.32227000   1.40924700