10

C    0.97422600  -0.09504400  -0.00024700
C    2.38975000   0.06042700  -0.00042500
C    3.61563200   0.25657100  -0.00026100
C    5.03888900   0.16586600  -0.00063900
O    5.32263100  -1.01815500  -0.00216400
C    5.96335900   1.26558500   0.00066700
N    6.69302500   2.16277500   0.00168900
H    0.50898400   0.91124700   0.01142900
H    0.64663700  -0.63517500   0.90392200
H    0.64370500  -0.61675600  -0.91397100