12

C    1.09528500   0.05253900  -0.27979000
C    2.45263200  -0.01515800  -0.01703700
C    3.14149000  -1.34148700   0.24362000
C    3.23425200  -1.60791100  -1.17774700
C    3.25267600  -1.69180800  -2.40259600
C    3.25538100   1.16410500  -0.05109500
N    3.91451700   2.11686000  -0.06758800
H    0.60101800   1.01687400  -0.42949700
H    0.49013100  -0.85844300  -0.31343000
H    2.51148900  -2.06473400   0.77915000
H    4.11755700  -1.23083200   0.73451500
H    3.29280000  -1.79722400  -3.47828400