17

C    1.22458600  -0.00419400   0.25284200
C    2.60924200  -0.25029300  -0.36449500
C    2.64933000  -1.39625600  -1.37283500
C    3.01078400   1.05460900  -1.06856500
O    2.77904800   1.44330300  -2.14264700
C    3.95339600   2.06287900  -0.03200800
O    3.90322900   3.33871200  -0.37105300
H    1.21545500   0.83087100   0.96780000
H    0.94279400  -0.91430700   0.80195500
H    0.46986700   0.17914000  -0.52429500
H    3.34888800  -0.40742600   0.43664400
H    1.91192500  -1.24868000  -2.17365200
H    2.40077500  -2.32312800  -0.83580600
H    3.64492700  -1.52254100  -1.81927000
H    4.92308200   1.54296800  -0.13680300
H    3.45329700   1.88595500   0.93109700
H    4.54647500   3.58309500  -1.05388600