12

O    1.47373600  -0.22024600  -0.79863600
C    2.65690600  -0.07706800  -0.11420300
C    2.98414300   1.35156400  -0.06210800
C    2.30375100   2.51067200  -0.57842700
N    3.01747200   3.58963400  -0.26257100
C    4.05854700   3.14068000   0.39719800
O    4.07703700   1.78969500   0.54091100
H    1.21764900  -1.14706000  -0.85773800
H    3.53244700  -0.59197700  -0.57541900
H    2.63792300  -0.44180000   0.93991700
H    1.36518900   2.52464700  -1.13504500
H    4.88776600   3.70180300   0.83221200