17

O    0.88554100   0.13335800  -0.00127700
C    2.26590300  -0.00612400   0.01126300
C    2.88390700   1.37725000  -0.00423900
C    4.40697300   1.33180200   0.00846200
C    4.98963700   2.74280900  -0.00757900
C    6.40340500   2.87627100   0.00157000
C    7.63874900   3.00402900   0.00971800
H    0.46149700  -0.73183900   0.00852900
H    2.62838900  -0.59125500  -0.86325700
H    2.61491500  -0.56543600   0.90787600
H    2.50854600   1.93759400   0.86852700
H    2.52250900   1.91164500  -0.89889800
H    4.78662700   0.77524500  -0.86437200
H    4.77265300   0.80117200   0.90314000
H    4.60912800   3.37035900   0.83652200
H    4.62301400   3.34481300  -0.87614400
H    8.71565300   3.12051800   0.01664900