17

C    0.89629800   0.02279400   0.01637600
C    2.41774200  -0.05184900   0.01877800
C    3.04822800   1.35004800   0.00351100
C    4.48146300   1.39577500   0.00254000
C    5.72209600   1.42656000   0.00115800
C    7.10199700   1.44741000  -0.00045700
C    7.80975300   2.63622400  -0.00181000
H    0.46582600  -0.98724700   0.02778200
H    0.51922400   0.53637300  -0.88078900
H    0.51744000   0.55720700   0.90052500
H    2.77682100  -0.61168300  -0.85837100
H    2.77490100  -0.59134300   0.90935900
H    2.71394200   1.96383600   0.86606800
H    2.71587800   1.94267900  -0.87477000
H    7.63444500   0.48897400  -0.00064700
H    7.29587000   3.60183600  -0.00163500
H    8.90323800   2.63001800  -0.00304800