18

C    2.68700300  -0.27787400  -1.59132500
C    2.51922300   0.33391400  -0.20927300
C    3.51916700   1.53896500  -0.00030800
N    3.25563500   2.14324400   1.27444600
C    2.15980700   3.01481000   1.55290100
C    4.91793200   1.14164100  -0.09495200
C    6.07405600   0.80405100  -0.17363500
H    1.96853800  -1.10219400  -1.70168400
H    3.69644600  -0.68728200  -1.73303700
H    2.48816000   0.45400800  -2.38735900
H    2.71522000  -0.40529200   0.58169000
H    1.49779500   0.72070800  -0.07275200
H    3.26953900   2.28908100  -0.77483200
H    3.88024400   1.88638600   2.04697800
H    1.55304500   3.17411300   0.65423300
H    2.55518900   3.98052200   1.91874900
H    1.54887200   2.59077900   2.36934700
H    7.10705600   0.50701300  -0.25084800