18

O    1.98256600  -0.16569900  -1.40158300
C    2.33891900   0.02596400  -0.06964400
C    3.08247000   1.35242600  -0.01865900
C    2.26598500   2.54829600  -0.53486300
C    2.96878800   3.75348300   0.08741900
N    3.53805100   3.22741200   1.29520200
C    3.49078400   1.79847800   1.39006400
H    1.54823500  -1.01677700  -1.51020400
H    2.99515000  -0.77752100   0.31674500
H    1.45507700   0.07950200   0.60055700
H    3.99496600   1.25165500  -0.63023400
H    1.22707200   2.49308000  -0.17182800
H    2.23445100   2.59389900  -1.62886100
H    3.81567300   4.12364200  -0.53283800
H    2.35240900   4.64063900   0.31205500
H    3.94823500   3.82019800   2.02305500
H    4.44258700   1.40889100   1.78859000
H    2.71408300   1.54816900   2.14940300