14

C    3.58329700  -1.25575400   0.02526100
O    2.70474300  -0.11919800   0.08493700
C    3.11585300   1.09507600   0.01271200
C    4.44823900   1.50287300  -0.13217300
N    4.78467200   2.79250100  -0.19869700
C    6.12549100   3.27678700  -0.34645600
O    6.34119400   4.43991400  -0.39738100
H    2.93554700  -2.13229800   0.11376000
H    4.28989600  -1.22222700   0.86641900
H    4.10632800  -1.26909300  -0.94129000
H    2.30485700   1.83058400   0.07593100
H    5.26772600   0.78065300  -0.19680100
H    4.07511600   3.52862000  -0.14551200
H    6.87719700   2.46147400  -0.40178800