14

C    3.83588000  -1.28944000   1.06649800
N    4.02860900  -0.36396700   0.01706500
S    3.89610500   1.46986200   0.26294200
O    2.79515700   1.75301900  -0.61645000
O    3.87467600   1.57162900   1.69222300
C    5.42723400   1.98178300  -0.39705100
C    5.45375900   2.56238900  -1.59873600
H    4.49482800  -2.16465600   0.92009200
H    2.79536000  -1.68322900   1.00661400
H    3.98478200  -0.80332600   2.03981700
H    4.02530800  -0.69767100  -0.95709700
H    6.27269100   1.85385000   0.28441100
H    4.54911800   2.69117400  -2.20111000
H    6.39850000   2.94023800  -1.99934700