16

O    1.05626500   0.14700800   0.05172300
C    2.43952000  -0.00491600   0.05213000
C    2.77888200  -1.43512100  -0.39507700
C    2.72914600  -1.39250000  -1.93271100
N    3.06369900  -0.00420900  -2.21727800
C    2.18258700   1.09197400  -2.35740100
C    3.04310300   0.85036000  -1.09233900
H    0.78804900   0.88630300   0.60975700
H    2.89786600   0.25397900   1.01803900
H    2.05828800  -2.15185500   0.02033200
H    3.78536200  -1.71187200  -0.05106700
H    3.47869400  -2.03763600  -2.41877600
H    1.74741600  -1.62158400  -2.37409800
H    2.53011700   1.92892500  -2.97398500
H    1.11206600   0.85848600  -2.37311600
H    3.84856600   1.57585200  -0.92785600