14

C    0.96239800  -0.18448700  -0.06925800
C    2.48710600  -0.08075500   0.01760600
C    3.21989000  -0.73301300  -1.04870300
N    3.79733500  -1.23536400  -1.91708700
C    2.84871600   1.50880100  -0.06967000
C    2.98429800   2.14557000  -1.42769700
O    2.96515500   2.05575800   0.97185600
H    0.48573000   0.36608600   0.75213400
H    0.71483700  -1.25250400   0.04446300
H    0.57071400   0.15369500  -1.03761700
H    2.86782600  -0.40568800   0.99761600
H    2.21688900   1.73244500  -2.09671500
H    3.97892200   1.83400300  -1.79411700
H    2.92542100   3.23641900  -1.33708800