17

C    0.94040600  -0.11599200   0.00174700
C    2.46482800   0.01706900   0.00142600
C    2.97434000   1.36480700   0.00089800
C    3.41423100   2.52211900   0.00007800
C    3.93089500   3.79930200  -0.00039400
C    3.10697500   4.92271200  -0.00458200
C    3.58965100   6.30617900  -0.00542300
H    0.67098800  -1.17976800   0.00172800
H    0.50163100   0.34901400  -0.89118200
H    0.50209600   0.34883400   0.89499800
H    2.92417300  -0.48851700  -0.87077700
H    2.92487200  -0.48875800   0.87302300
H    5.02090400   3.92141100   0.00264800
H    2.02260500   4.75671800  -0.00752300
H    4.68263200   6.39309800  -0.00200500
H    3.16475300   6.83809500   0.86577500
H    3.17056200   6.83488900  -0.88139400