14

N    1.05076000  -0.42304300  -0.20564700
C    2.37053500  -0.28455000  -0.27370900
C    2.97225100   1.74702900   0.20777000
N    2.42954300   2.06821700   1.39689500
C    4.37472900   1.53762000   0.10310400
C    5.56051000   1.30880300   0.00353600
H    0.58804700  -0.68305100   0.65896600
H    0.45605300  -0.27198400  -1.01406800
H    2.82628700  -0.25785200  -1.26690100
H    2.96210300  -0.70339800   0.54322200
H    2.45120600   2.13682700  -0.67331200
H    2.96653700   1.99344800   2.25432900
H    1.50021300   2.46657800   1.45646300
H    6.61986900   1.13200100  -0.08590700