18

C    1.01518600  -0.11809600  -0.21121500
O    2.25406100   0.29096500   0.31189000
C    2.83858800   1.51856600   0.02748100
C    2.26696100   2.24552700  -1.17052800
C    2.53786300   2.32698800   1.38624600
C    4.35666100   1.27407300  -0.02894300
H    0.74951100  -1.05715600   0.28283900
H    1.11879200  -0.25405800  -1.30361600
H    0.25629300   0.66597200  -0.04001700
H    2.39493900   1.64280200  -2.08374700
H    2.81905700   3.18398600  -1.30913200
H    1.20338900   2.49828700  -1.05699100
H    2.94292600   1.78910700   2.25041600
H    1.45458800   2.47191500   1.48337100
H    3.05206000   3.28797000   1.24879500
H    4.70332000   0.71062800   0.84650600
H    4.86969200   2.24342300  -0.06527800
H    4.59105700   0.70519200  -0.93991800