19

C    0.89204200   0.09627000  -0.25274000
N    2.20084800   0.61689800  -0.46323800
C    2.79514700   1.73410700   0.18996000
C    4.32556400   1.56166400   0.15086500
O    4.60533700   0.91186500  -1.04973900
C    5.10626700   2.88536700   0.20463700
N    6.44030800   2.60221200  -0.29184200
H    0.97662000  -0.94555400   0.10936400
H    0.35920000   0.04882300  -1.21831100
H    0.33633600   0.70378500   0.47010700
H    2.83642800   0.20363700  -1.16969100
H    2.36836600   1.87068100   1.19491600
H    2.51488000   2.62839800  -0.41165400
H    4.61241500   0.92727900   1.01379900
H    5.51552200   1.21049100  -1.27609500
H    5.06505300   3.31703700   1.22004400
H    4.63105300   3.60543600  -0.48000400
H    7.07028000   2.27886900   0.43952900
H    6.86997000   3.41010300  -0.73335600