19

C    1.24023900  -0.75304400   0.62152300
C    2.40617600  -0.24964600  -0.21362800
C    3.38053600  -1.35478400  -0.63114300
N    1.92645200   0.47511400  -1.41723800
C    2.80319200   1.39119000  -2.13258700
N    0.94778700  -0.07427400  -2.11557800
C   -0.25575100   0.30798100  -2.18721600
H    0.53803400   0.05449700   0.87426600
H    1.63694800  -1.15174400   1.56479300
H    0.69842900  -1.56806600   0.12017600
H    2.95243400   0.52550500   0.34606100
H    2.86784700  -2.11437000  -1.23869500
H    3.77058800  -1.83838400   0.27461400
H    4.23649200  -0.95879200  -1.19473800
H    3.46102300   1.87948400  -1.40475600
H    2.19551700   2.13932900  -2.65908500
H    3.40944400   0.83668900  -2.86701500
H   -0.93198400  -0.26090400  -2.83350800
H   -0.63161700   1.17762700  -1.62837000