14

C    0.49200800   1.38839900   0.54141700
C    0.91426700   0.42509000  -0.45229400
C    0.98374800  -1.02389700   0.01092900
C   -0.42560800  -1.39502600   0.29989900
C   -1.30848100  -0.37706800  -0.05751200
C   -0.60690400   0.76729800  -0.51318100
H    0.61883200   2.45836900   0.35969200
H    0.34011300   1.09142100   1.58281400
H    1.50694100   0.76606200  -1.30700400
H    1.65403700  -1.18877400   0.87089400
H    1.36211900  -1.68623700  -0.79242100
H   -0.72870700  -2.36698900   0.69688500
H   -2.39685900  -0.46877600  -0.05109500
H   -1.06404700   1.53034700  -1.14575200