13

C    0.43985400   0.00092600  -0.11026500
C    1.69355200  -0.23604800   0.28381900
C    2.72457800   0.82400000   0.29254100
O    3.68329400   0.52232700  -0.86414400
N    4.87520600   0.91342600  -0.72917600
C    5.97978900   0.30897500  -0.66243800
H   -0.31793000  -0.78504100  -0.07654100
H    0.11883000   0.98510200  -0.46507900
H    1.98977200  -1.22394000   0.64814700
H    3.36336400   0.84613200   1.18725900
H    2.34169000   1.82544200   0.05308700
H    6.89020100   0.91664000  -0.68747100
H    6.01346500  -0.78671300  -0.56798900