17

C    0.83715600   0.17677200   0.13469600
C    2.29779500   0.13386600  -0.10243500
C    2.80714700  -0.03575600  -1.49807000
O    3.03735200   0.82140000   0.79692700
C    4.11582400  -0.04804300   1.10495000
C    3.41996900  -1.36543600   0.86491100
O    3.92024600  -2.35551300   0.18967200
H    0.59463600   0.01018500   1.19243500
H    0.30047600  -0.53058900  -0.50987000
H    0.49117900   1.19647400  -0.11873700
H    3.89884600   0.03031700  -1.58334400
H    2.38039200   0.79125900  -2.09416700
H    2.44445700  -0.97370900  -1.94146200
H    4.99551700   0.10937000   0.45653800
H    4.41521100   0.10867300   2.15270000
H    2.62533300  -1.67280200   1.55565800
H    4.71930700  -2.12587700  -0.30984300