13

C    0.97554700  -0.05456400  -0.09934500
C    2.45143500   0.06045800   0.01958900
C    3.18978900   1.24363200   0.24434900
C    4.57505800   1.20611800   0.32313800
C    5.24111200  -0.02141400   0.17829000
N    4.44199100  -1.05934100  -0.02749600
N    3.23056800  -1.02360600  -0.09635800
H    0.59704600  -0.83263700   0.57880700
H    0.70572200  -0.34587000  -1.12625900
H    0.49202700   0.89999900   0.13626300
H    2.64770300   2.18555400   0.35585800
H    5.15649000   2.11455100   0.49673400
H    6.31903800  -0.17861200   0.22108000