20

C    1.00133900  -0.07639200   0.24671900
C    2.48789800  -0.01835200  -0.12621700
C    2.92823500   1.39813100  -0.41638300
C    2.34734800   2.10439800  -1.61214400
O    3.03347400   2.12243200   0.70147100
C    4.79864100   1.08636500  -0.92739800
N    5.46385700   2.22880600  -1.15354000
H    0.73977000  -1.10584400   0.52513800
H    0.35423000   0.21524600  -0.59247900
H    0.78583100   0.57369200   1.10565400
H    2.68186600  -0.65072800  -1.00502900
H    3.08796800  -0.40744500   0.71004200
H    2.39012900   1.47771400  -2.51229800
H    2.85581800   3.05963400  -1.81105900
H    1.28696800   2.32329500  -1.40611900
H    2.98871600   3.07180100   0.52455900
H    4.60491500   0.46829100  -1.80975700
H    5.06970000   0.55887700  -0.00844300
H    5.51989300   2.64194900  -2.07914500
H    5.93670200   2.72222900  -0.40246700