13

O    3.19404300  -0.69626500  -0.75608700
C    2.26447700   0.05763200  -0.05764000
C    2.78976500   1.43340300   0.02840000
N    2.20931900   2.48922700   0.62079600
C    3.03454200   3.49995800   0.44907500
C    4.20660800   3.06806000  -0.29320500
N    3.99975600   1.77002400  -0.52923600
H    2.90522900  -1.61001000  -0.84567100
H    2.07862200  -0.28564300   0.98232600
H    1.26485400   0.11985800  -0.53793500
H    2.83881600   4.50673700   0.82250200
H    5.09173800   3.61350500  -0.62094000
H    4.58981600   1.09913500  -1.02425500