17

O    2.09543700  -0.88077900  -0.75651900
C    1.86782900   0.28904200  -0.03676300
C    3.18036300   1.05015500  -0.08419400
C    3.49352600   2.02780400  -1.10082300
C    3.03485500   2.71862900   0.19347600
C    3.94330800   3.20869200   1.15187100
C    3.56373000   4.05540000   2.17803300
H    2.27380500  -1.61887700  -0.16407100
H    1.55613800   0.11445800   1.00544800
H    1.07568600   0.86776600  -0.53770000
H    4.01027200   0.60536900   0.47529600
H    2.77223000   2.16295100  -1.91306000
H    4.54117500   2.18994500  -1.36773800
H    1.99203700   3.04466100   0.24619500
H    4.99574600   2.91262700   1.07397000
H    2.52286000   4.37020800   2.29727200
H    4.29821500   4.44090800   2.88899500