13

C   -0.87804000   0.00034900  -1.28815200
C   -0.70187200   0.97859900  -0.10698800
O   -1.32332900   0.00009200   0.70178500
C   -0.70192600  -0.97827100  -0.10728600
C    0.84180100  -0.73428200   0.29555400
O    1.53740400   0.00012200  -0.64945900
C    0.84193100   0.73431100   0.29575100
H   -1.91043700   0.00044900  -1.65317200
H   -0.11060700   0.00045400  -2.07595200
H   -1.08988200   1.99678400   0.00173400
H   -1.09009500  -1.99642700   0.00112100
H    1.39350000  -1.47221600   0.88459800
H    1.39367100   1.47205600   0.88499700