17

C    0.79725700  -0.12780100   0.17791800
C    2.29517400  -0.00912600   0.03017600
C    2.76150800   0.04141300  -1.50572700
O    2.23678000   1.15188100  -2.09810900
C    3.07527900   1.05483100   0.80522300
O    4.06722800   0.10441000   1.15232100
C    3.25018300  -0.97115700   0.77146900
H    0.49947400  -0.19069400   1.23409800
H    0.42324500  -1.02702800  -0.33343200
H    0.30308000   0.75268700  -0.25550700
H    2.45105000  -0.90683800  -1.97386700
H    3.86298100   0.11535300  -1.48823100
H    1.47985800   0.94291800  -2.65929000
H    2.54421500   1.40783700   1.71533400
H    3.51961200   1.93756300   0.31465600
H    3.82331600  -1.78575000   0.30123100
H    2.72035600  -1.38565800   1.65904700