14

C    0.73911500   1.16558200  -0.26167600
C   -0.77546200   1.16348500   0.27418300
O   -1.32924300   0.00193200  -0.20936200
C   -0.77755900  -1.16679900   0.25908200
C    0.73698900  -1.16470400  -0.27676600
O    1.29078500  -0.00313700   0.20677200
H    0.70253100   1.21302800  -1.36150800
H    1.26602500   2.02041700   0.18023500
H   -1.30081900   2.02492400  -0.15661400
H   -0.73881200   1.19661100   1.37453700
H   -0.74100500  -1.21425100   1.35891400
H   -1.30448500  -2.02162300  -0.18283000
H    1.26236000  -2.02613200   0.15403400
H    0.70036800  -1.19783400  -1.37712000