12

C    0.93239300   0.00633800  -0.00498500
C    2.41162900   0.08273500  -0.00090400
N    3.07283900   1.19374900   0.00120200
S    4.73453600   0.90630000   0.00466500
C    4.64828100  -0.75788200   0.00366000
C    3.28719300  -1.12430900   0.00043800
O    2.75467700  -2.30131800  -0.00126600
H    0.50562400   1.01530700   0.00082500
H    0.58024400  -0.55270800   0.87617400
H    0.58525200  -0.53942100  -0.89654100
H    5.52228300  -1.41240500   0.00534700
H    3.38996700  -3.03662300  -0.00023700