17

C    1.00691800   0.31956200  -1.07729200
C    2.48081000   0.34213200  -0.95471800
C    3.17210900   0.99168200   0.04786800
C    4.56942100   1.02236900   0.20387200
C    5.57816100   0.38316100  -0.71038300
C    5.61056200   1.71911200  -1.30642100
O    6.49326100   2.63286700  -1.06132600
H    0.70180100   0.72003400  -2.05898500
H    0.50559900   0.88844600  -0.28411800
H    0.64641400  -0.72304800  -1.05789300
H    3.03850700  -0.21179100  -1.72014300
H    2.59312600   1.52475900   0.80860700
H    4.97098400   1.53307200   1.08351900
H    5.18317200  -0.39931900  -1.36804500
H    6.50175800   0.06876400  -0.20770300
H    4.86445600   2.02253300  -2.04733100
H    7.22949400   2.33116900  -0.50555200