19

N    1.00883300   0.27537000   0.21514100
C    2.48573500   0.04746000   0.11946400
C    3.18212900   1.38676200   0.40049200
C    2.58567100   1.98766300   1.65721600
N    2.66716700   3.33944800   1.83311000
C    4.67730500   1.18901900   0.48567800
C    5.55780600   1.76452300  -0.33086600
H    0.46612600  -0.56067500   0.45286700
H    0.61764100   0.68010800  -0.64235900
H    2.73223200  -0.36388100  -0.86698400
H    2.74538200  -0.69561100   0.88673000
H    2.97352000   2.06630700  -0.44762000
H    2.69014200   1.40409000   2.58236000
H    0.93123100   1.00624700   0.98025200
H    2.75096900   3.97239800   1.04823600
H    2.48818600   3.75837800   2.73566800
H    5.02726900   0.54560400   1.30209800
H    5.24467900   2.42015500  -1.14959700
H    6.63108700   1.60402600  -0.20895200