12

C    0.42421500   1.39346100   0.50733200
C    0.87738700   0.34857100  -0.53502700
N    0.85735500  -0.96716700  -0.01332400
C   -0.40024600  -1.31035400   0.30836300
N   -1.27303500  -0.34994600   0.06721700
C   -0.56164800   0.71963500  -0.49077100
H    0.67219400   2.43717900   0.30167800
H    0.38683200   1.09500200   1.55892900
H    1.62796100   0.61075900  -1.28535100
H    1.68596800  -1.53600700   0.16498000
H   -0.65008000  -2.27848200   0.74876500
H   -1.07374400   1.39975800  -1.17834200