14

C    4.29058300  -1.94162500   0.86912900
O    4.87613400  -0.77740200   0.24383500
C    4.07095200   0.17534900  -0.11461100
O    2.89210600   0.28561600  -0.02656200
N    4.88004200   1.23397400  -0.71635900
C    4.32829700   2.33683600  -1.17615200
C    5.06530900   3.37669500  -1.76031700
H    5.12977100  -2.60708400   1.08701600
H    3.58387600  -2.41293500   0.17464200
H    3.77589000  -1.64166300   1.79053400
H    5.89051100   1.07635700  -0.76230300
H    3.23742500   2.38622000  -1.06901800
H    6.15305900   3.32377600  -1.86555500
H    4.54633100   4.26666200  -2.12237600