11

C    0.63075100   0.41305500  -0.22781700
C    1.95886300   0.09409400   0.11125000
N    2.37461200  -1.16526200   0.20339900
C    3.71793800  -1.63252000   0.54460500
O    3.91168300  -2.79587200   0.58059400
C    2.89860100   1.15317300   0.36667000
N    3.63246600   2.02391800   0.56666000
H    0.32121200   1.45879300  -0.29512000
H   -0.10036000  -0.37632700  -0.42611500
H    1.71094900  -1.92677400   0.02285300
H    4.43785600  -0.81363700   0.74037200