14

C    0.84838100  -0.26331900  -0.42492300
C    2.30805100  -0.24836300  -0.36334900
C    3.07284500   0.70540700   0.30748900
C    4.47200300   0.63904400   0.31193900
C    5.25024400   1.58664600   0.97908700
C    6.65519500   1.52240300   0.98518700
N    7.81763700   1.46643400   0.98833300
H    0.48288300  -1.23563000  -0.04322400
H    0.53393500  -0.26038200  -1.48598000
H    0.36890100   0.56116200   0.11533300
H    2.84258200  -1.05212600  -0.88717200
H    2.56869500   1.51949700   0.83936500
H    4.97680900  -0.17496300  -0.21984500
H    4.78343100   2.41631900   1.52278800