18

C    0.83721100  -1.21349700   0.43833200
C   -0.51401700  -1.61935300  -0.20542200
C   -1.57644400  -0.55793600  -0.21557700
C   -1.45796300   0.74452600   0.05755400
C   -0.20079600   1.51049100   0.40417600
C    1.01911300   1.16500500  -0.43260600
N    1.48672300  -0.18470600  -0.31083900
H    1.50968100  -2.07700900   0.50415100
H    0.63545300  -0.82449200   1.45140400
H   -0.86469500  -2.48045100   0.38583000
H   -0.33380300  -2.00799100  -1.22159700
H   -2.57240300  -0.93327900  -0.46988500
H   -2.37261900   1.34286400   0.03406400
H    0.03989100   1.42793800   1.47874800
H   -0.38082600   2.58230600   0.24106500
H    1.88378300   1.82135800  -0.20776300
H    0.82428400   1.32621900  -1.51487100
H    2.30930600  -0.43724200  -0.86714200