15

C    3.33395000  -2.14198600  -0.67232500
C    2.46871100  -0.93176900  -0.42692800
C    3.30287400   0.45265600  -0.23288300
N    4.02274100   0.77871000  -1.38056000
C    3.45396800   1.52512000  -2.45704200
O    2.32793300   1.90984300  -2.37351100
H    2.68417700  -3.03192700  -0.67294900
H    4.07802400  -2.29273500   0.12392200
H    3.84400700  -2.11630600  -1.64609700
H    1.91697600  -0.99449900   0.52251500
H    1.75612100  -0.72649000  -1.23926300
H    3.98995000   0.28091900   0.60832000
H    2.54049200   1.22202200  -0.04202300
H    4.96293600   0.39125300  -1.51259300
H    4.13970100   1.67436000  -3.31215800