15

C    1.02465100  -0.12277300   0.03742700
C    2.57268600  -0.05866900   0.05890800
C    2.93083700   1.39003500  -0.04432000
C    4.69962600   1.50486100  -0.03998200
O    5.00302100   2.78915000  -0.04320000
H    0.74331100  -1.18358300   0.11794200
H    0.61081400   0.27332000  -0.89967300
H    0.58168600   0.41715400   0.88499200
H    2.97342300  -0.63798900  -0.78555900
H    2.94399700  -0.49892200   0.99550900
H    2.66432900   2.01368800   0.81946500
H    2.67273500   1.87513200  -0.99640900
H    4.97071400   0.92596800  -0.93519600
H    4.91334600   1.04597200   0.93457400
H    5.12224600   3.16055000  -0.93517900