13

O    1.06549400   0.04334500  -0.33260100
N    2.35448000   0.02313200  -0.00844700
C    2.96681600   1.23261900   0.10015200
C    4.28982800   1.25579200   0.43143600
C    5.03166100  -0.00756000   0.66479000
N    4.27381900  -1.21592900   0.51975300
C    3.04993400  -1.18445800   0.21137000
H    0.73112400  -0.86815200  -0.38345900
H    2.34038000   2.10605700  -0.08974100
H    4.80125800   2.21636300   0.52396700
H    5.91603500  -0.07149000  -0.00230700
H    5.49573100  -0.00893600   1.67268300
H    2.44878100  -2.09639400   0.09461300