11

C    1.00916500  -0.05551700  -0.16146100
C    2.38699100  -0.03687800   0.06829900
N    3.18522900  -1.07687400   0.22206100
C    4.56179700  -0.58952600   0.44288100
O    5.47706600  -1.31093800   0.60920500
N    4.50324200   0.82484900   0.40428300
C    3.29371200   1.15921300   0.19607200
H    0.45548100  -0.99561900  -0.23538800
H    0.46591700   0.88662200  -0.27079100
H    2.94135500  -2.06897100   0.20071700
H    2.95117400   2.19565900   0.11818200