18

C    0.82569100  -0.10209500  -0.08088600
C    2.26913500  -0.37490000   0.16481800
N    2.72820500  -0.39215200   1.40140600
C    3.21132900  -0.63575400  -0.95795500
C    3.64945500   0.78148900  -1.07610300
C    3.13075000   1.77248600  -2.05268400
O    4.63182000   1.10161600  -0.23738800
H    0.67086500   0.42424200  -1.03052700
H    0.36526200   0.47850600   0.73001400
H    0.29827600  -1.06883600  -0.15521300
H    3.69111100  -0.64141900   1.60596300
H    2.15306100  -0.09072700   2.18168400
H    2.69724700  -0.99846200  -1.85545900
H    4.04140400  -1.30810500  -0.69214900
H    2.24924200   1.39419800  -2.58423600
H    3.90331900   1.98976000  -2.81241900
H    2.86556600   2.72785300  -1.56950800
H    4.82957400   2.04755600  -0.25330600