11

O    2.78751100  -1.08810800   0.03609000
C    2.24539700   0.03438500  -0.00748100
C    2.87091600   1.27246200  -0.00104800
C    2.33478900   2.57034600  -0.04732300
C    3.42788300   3.43363800  -0.01361400
C    4.55099600   2.61857200   0.05042400
O    4.23010500   1.34142000   0.05822300
H    1.13379300  -0.01723500  -0.05599000
H    1.27838800   2.83264800  -0.09884700
H    3.42023900   4.52103100  -0.03274100
H    5.61484100   2.85181400   0.09371600