11

O    1.01022000  -0.11411300  -0.05518200
C    2.26512400  -0.18727200   0.12432800
C    3.13601700  -0.58750100  -0.98623700
C    3.49100500   0.84071600  -1.32359800
C    4.58048800   1.48316800  -0.73970300
N    5.48887400   2.00411100  -0.22200700
H    0.50859800   0.25691200   0.69477000
H    2.69341000   0.10770600   1.09528000
H    2.58318800  -1.08346100  -1.79442100
H    4.00509100  -1.16877400  -0.64791900
H    2.85397300   1.40242600  -2.01540800