15

C    0.89021400   0.02159700   0.10400500
C    2.42925200  -0.08751300   0.07169300
C    2.88345000  -0.91293900  -1.15458600
C    4.35883800  -0.64548300  -1.40027200
O    5.17956600  -1.32643000  -1.88913600
C    3.09890600   1.20656400   0.01493300
C    3.71622800   2.25616500  -0.09223600
H    0.57326000   0.55282100   1.01019100
H    0.45280100  -0.98536000   0.12351100
H    0.51209500   0.56089100  -0.77546000
H    2.76809800  -0.59769900   0.98881400
H    2.39937700  -0.54594600  -2.08015500
H    2.69073900  -1.99141500  -1.06545000
H    4.60506800   0.44539900  -1.02515100
H    4.23724400   3.20029800  -0.15778800