12

O    1.01630400   0.09066600  -0.05838700
C    2.39118100   0.03789500   0.06020100
C    2.88011000   1.47358600   0.03348600
C    2.07415900   2.55484200  -0.08610300
C    4.29499200   1.72625200   0.14150200
O    5.17393800   0.88851800   0.25605500
H    0.63681500  -0.79413200  -0.04918600
H    2.88252600  -0.50822800  -0.77024200
H    2.73233300  -0.42394900   1.00869900
H    0.99549400   2.39086000  -0.16961900
H    2.45212200   3.58053400  -0.10278600
H    4.68025400   2.77904000   0.12395000