18

C   -0.88359600   0.03724500  -1.12687300
C   -0.65820800   1.10288700  -0.02597600
C   -1.16283400   0.06112700   0.98405100
C   -0.60950300  -1.04053700  -0.05294600
N    0.77156400  -1.12895500   0.21794900
C    1.62754000   0.01253600   0.01175200
C    0.84032700   1.33791300   0.16949500
H   -1.93436700  -0.02067600  -1.43611200
H   -0.23531800   0.03531300  -2.01543300
H   -1.21155300   2.04782200  -0.09657700
H   -0.74935300   0.03269700   2.00156800
H   -2.25601700  -0.03774800   1.00833700
H   -1.08086300  -2.03023600  -0.07310900
H    1.14936900  -1.97603300   0.64733900
H    2.01367400  -0.07569200  -1.02390100
H    2.49902400  -0.06883400   0.67490200
H    1.22165000   2.06108800  -0.56379400
H    1.02803300   1.75740400   1.16883800