16

N    2.26602700   1.16314500  -1.55589100
C    2.45942300   0.07032300  -0.83595700
O    2.22769100  -1.07013600  -1.15208200
C    3.12015100   0.27024400   0.62540400
C    4.53759200  -0.10118900   0.54497500
C    5.57576000   0.78581400  -0.16033100
C    5.58091300   0.81095500   1.30063600
H    2.43039600   2.08950600  -1.18161000
H    1.86520700   1.08140900  -2.48754400
H    2.53153100  -0.37689500   1.28763200
H    2.94574400   1.32963100   0.87013200
H    4.75227300  -1.17260900   0.56487500
H    5.18459700   1.65902500  -0.69054300
H    6.35708500   0.23166000  -0.68634500
H    6.31648300   0.22459800   1.85764000
H    5.17336300   1.67458500   1.83048800