17

C    0.95341300   0.04980200  -0.10669900
C    2.46482200  -0.03254900   0.05855200
C    3.05722200   1.06790800   0.94013200
O    4.25336100   0.45623000   1.53062900
C    4.21102100  -0.82178200   1.43880100
C    5.27858700  -1.56737500   1.98675000
C    2.97998000  -1.30474000   0.75873600
H    0.59068000  -0.76878500  -0.74291300
H    0.66366400   0.99430200  -0.58777000
H    0.43919700  -0.01452400   0.86448300
H    2.94234800   0.02672300  -0.93289000
H    2.41808000   1.34895200   1.79188000
H    3.39623600   1.97212100   0.42239000
H    5.27070100  -2.65743900   1.93019200
H    6.11187800  -1.04710900   2.46589700
H    3.17039200  -2.16180000   0.09748200
H    2.28309700  -1.65570400   1.54562300