13

N    0.95444000   2.51023600  -0.26029300
N    2.24054100   2.51024300  -0.19052000
C    2.85646600   1.33569700  -0.13098000
O    4.12101500   1.25692500  -0.06058300
C    4.97783400   2.45926200  -0.04092400
C    6.35681500   2.03243900   0.04250700
C    7.51758100   1.71300100   0.11180600
H    0.49251900   3.41942800  -0.30555500
H    0.37797000   1.66055200  -0.27262200
H    2.33806200   0.36273300  -0.13750500
H    4.67027900   3.06124800   0.82689200
H    4.76639900   3.02221800  -0.96205000
H    8.55399100   1.42696600   0.17369700