16

C    0.85425000   1.12927200  -0.44831900
C   -0.38870000   0.39841600  -0.00288100
N    0.90886400  -0.17572300   0.12565800
C    1.63374100  -0.87777800   1.09494600
C    1.45573300  -0.22469800   2.55334600
O    0.50357800  -1.18609700   2.88577200
C    0.85862700  -2.01610300   1.77969400
H    1.05628500   1.18534800  -1.52456400
H    1.28098800   1.93880600   0.15556500
H   -1.02785800  -0.03827200  -0.78014500
H   -0.89539100   0.64883700   0.93780200
H    2.67183400  -1.02024000   0.76634300
H    1.09244400   0.81355600   2.60476900
H    2.41869800  -0.32804000   3.08430000
H    1.50781800  -2.85701300   2.06977700
H   -0.02296400  -2.38980900   1.23853000