17

C    2.62062500  -0.37121600   1.57200100
C    2.66298700   0.09368900   0.09869800
N    3.09357800   1.46529300  -0.01048900
C    2.16120700   2.53663900   0.22554100
C    4.53768600   1.70905700  -0.18664700
N    4.84928200   2.91628500  -0.67205800
O    5.27435900   0.82809200   0.15493400
H    2.25156600  -1.40529800   1.57518200
H    1.93852800   0.24355300   2.17492800
H    3.63036200  -0.34856200   2.00003300
H    1.65449700   0.04032300  -0.34142000
H    3.36715800  -0.53114900  -0.46426300
H    1.81137000   2.92359100  -0.75172000
H    2.64632900   3.35466500   0.77649900
H    1.28757900   2.16404500   0.77456400
H    4.18306400   3.56263800  -1.07428800
H    5.83679300   3.12238800  -0.79251500