18

C    3.28824900  -0.69765800   1.67099000
O    4.04068400   0.50310700   1.54424600
C    3.78921300   1.31246100   0.52576600
C    2.29028500   2.40399700   1.08479200
N    2.57542000   3.12360500   2.18048900
C    4.85313800   2.27466800   0.22930500
C    5.00008300   2.83528600  -0.97836000
H    3.79065200  -1.30371800   2.43169800
H    3.26334500  -1.24268300   0.71586300
H    2.26073600  -0.47817000   2.00459600
H    3.27247700   0.85860300  -0.33790600
H    1.58110300   1.58269800   1.23839400
H    2.15644000   2.97803300   0.16307300
H    2.52225000   2.71608900   3.10873100
H    3.01674600   4.03551900   2.11045300
H    5.53724200   2.49936800   1.05340600
H    4.32643600   2.60702300  -1.81069400
H    5.81778600   3.53012000  -1.18104800