11

C    0.97413200  -0.02401700  -0.00571200
C    2.42813700   0.06753300   0.00203600
C    3.32571500   1.20120500   0.00173600
C    4.59023100   0.61905900   0.00940700
N    4.50434000  -0.70664400   0.01373400
O    3.14457800  -1.01927400   0.00930300
H    0.50205200   0.96359500   0.00415500
H    0.64408400  -0.62319300   0.86287000
H    0.65466500  -0.59692800  -0.89629200
H    3.04475700   2.25431000  -0.00343900
H    5.57672900   1.08471300   0.01199200