14

C    1.03031700  -0.08668300   0.15970200
C    2.51998600   0.04577200  -0.04447800
C    3.19230300   1.21107100   0.71460500
N    4.26575900   0.59261700   1.37044100
C    4.23010300  -0.86505300   1.23187600
O    5.00797600  -1.57435800   1.76297500
O    3.20014300  -1.12166200   0.45910900
H    0.65943100  -0.97120000  -0.37353000
H    0.52107800   0.79784300  -0.24922000
H    0.78293800  -0.18583100   1.22641200
H    2.76814300   0.11034600  -1.11574400
H    2.52581100   1.68400700   1.47767600
H    3.54092100   2.06352700   0.09530600
H    4.99220700   1.05621200   1.93198600