13

O    3.07067800  -1.01894000  -0.41529500
C    2.34809900   0.06072400   0.02057200
C    3.20766100   1.23878500   0.19553200
C    3.22908100   2.46839300  -1.13513800
C    2.70021500   2.63275400   0.22741500
H    2.55726700  -1.83145600  -0.34341600
H    1.94146300  -0.06445100   1.06420400
H    1.44667800   0.29465300  -0.58715300
H    4.25307600   1.03602800   0.45919700
H    2.57412400   2.17613900  -1.96112700
H    4.26702000   2.71556100  -1.37707000
H    3.27626600   3.30405800   0.87579400
H    1.60920800   2.72343600   0.29554600