15

O    4.22345800  -0.99674800  -0.65738200
C    3.20381500  -0.56030900   0.16798100
C    3.25288700   0.90817500   0.30415900
C    4.22864900   1.65748500  -0.34761100
N    4.31547500   2.97875300  -0.25686700
C    5.28696100   3.81751500  -0.89485800
N    6.22404700   3.46069300  -1.64955000
H    4.19964000  -1.95396200  -0.75454300
H    3.24665400  -0.98315100   1.19743400
H    2.18515600  -0.81838100  -0.20082500
H    2.49845800   1.39229300   0.93387800
H    4.96046900   1.12880400  -0.96571700
H    3.63086700   3.46983300   0.32111100
H    5.12952700   4.87529700  -0.64892100
H    6.31669300   2.45986600  -1.83957800