13

C    1.12628200  -0.27139200   0.69728200
C    2.24331400  -0.22252800   0.24309500
C    3.57780200  -0.17256700  -0.31580700
N    4.52928100   0.48370300   0.53198200
C    5.81030600   0.95217300   0.06506500
C    6.78145500   1.03005500   1.15196100
N    7.53222300   1.08475900   2.02586700
H    0.12634100  -0.31579500   1.09935000
H    3.60664500   0.31087100  -1.31418300
H    3.97535200  -1.20083100  -0.49817700
H    4.27563600   0.63958800   1.51749700
H    5.66182000   1.95917300  -0.38217400
H    6.16598300   0.29775800  -0.74979700