13

C    0.81360400   0.15419100  -0.00931200
C    2.29389800   0.01933900  -0.00057800
C    3.22553500   1.05970200   0.00528500
N    4.49592900   0.65027300   0.01238300
C    4.69925600  -0.72913700   0.01287500
N    5.86377400  -1.22341200   0.01933600
S    3.09229000  -1.50004900   0.00321200
H    0.52537500   1.21282900  -0.00780300
H    0.37192600  -0.33160400   0.87458200
H    0.38315800  -0.32589000  -0.90187200
H    2.98221200   2.12296800   0.00446800
H    5.30763800   1.26919200   0.01740300
H    5.91137100  -2.24413000   0.01909200