14

C    1.86080400  -0.37635900  -0.96960800
C    2.25098900   0.32216600   0.15560700
C    2.96042000   1.63549800   0.11678100
C    4.26660200   0.89270800  -0.05050400
C    4.93498700   0.32944600   1.01295600
C    4.77920000   0.75231900  -1.38470000
N    5.15927500   0.65369100  -2.47261400
H    1.26157100  -1.28644800  -0.87457100
H    2.11777700  -0.03713900  -1.97907900
H    2.06259400  -0.11595600   1.14192400
H    2.89346000   2.19270400   1.05666600
H    2.72306100   2.26846900  -0.74552900
H    4.53604900   0.40461100   2.02836600
H    5.89486200  -0.17401200   0.86947700