13

C    3.24568700  -1.08037200   0.54012000
O    2.50444500   0.14444600   0.28388700
C    3.07647700   1.26719000   0.17876000
C    2.48780900   2.54239200  -0.06903400
C    3.54764300   3.43339300  -0.08964600
C    4.70531900   2.68641200   0.13978000
O    4.39995400   1.37477700   0.30021800
H    2.48681000  -1.86546500   0.57642200
H    3.76772100  -0.98702100   1.50032600
H    3.95249000  -1.24802400  -0.28180000
H    1.42341500   2.72289100  -0.20582300
H    3.51121100   4.50937000  -0.25100800
H    5.75938400   2.94918300   0.21057800