20

C    0.94048500   0.03048400   0.12620800
C    2.46546500   0.01244600   0.02338500
C    3.02059300  -1.31903700  -0.48823500
C    2.73351700  -1.50030800  -2.01505200
N    3.20955600  -0.34647500  -2.70474100
C    2.74089500   0.94868300  -2.33523800
C    3.02807700   1.16433200  -0.81291400
H    0.58852600   0.98124100   0.55048400
H    0.58323000  -0.77712900   0.78038800
H    0.44091000  -0.09553900  -0.84916300
H    2.87075300   0.14438900   1.04191900
H    2.56774000  -2.18042400   0.02351600
H    4.10877000  -1.37838900  -0.33359100
H    3.20785200  -2.40227700  -2.41855400
H    1.64014400  -1.56237000  -2.15733100
H    4.03528100  -0.42725000  -3.30353800
H    3.22024900   1.71377500  -2.95669400
H    1.64779700   0.97855600  -2.48953000
H    4.11670700   1.25499400  -0.67788500
H    2.58073400   2.13099900  -0.54016600