12

C    1.04474400  -0.01952400  -0.00433200
C    2.50199900   0.08190400  -0.00570600
N    3.26841400   1.16053100  -0.00701400
C    4.52520500   0.73574100  -0.00917700
C    4.49988500  -0.70120200  -0.00915300
O    5.38254500  -1.62114500  -0.01060300
O    3.23678300  -1.07714800  -0.00698400
H    0.60803400   0.98456600   0.00540700
H    0.70979000  -0.59365900   0.87548100
H    0.70796000  -0.57541000  -0.89536900
H    5.39873400   1.39026000  -0.01067300
H    6.29883300  -1.29643400  -0.01210700