12

C    0.96091700  -0.01704600   0.06344400
C    2.41540700   0.04007400   0.13771600
C    3.18264700   1.15094600  -0.23183300
C    4.55397100   1.13256400  -0.13396100
C    5.78848700   1.12846300  -0.05041100
C    7.14910000   1.12178200   0.04240500
N    8.31184500   1.11280800   0.12305400
H    0.67100600  -0.88615500  -0.55924900
H    0.49098200   0.89869100  -0.31306500
H    0.56362400  -0.27386600   1.06504000
H    2.94811800  -0.84566700   0.50766000
H    2.69991100   2.06157500  -0.60842100