19

C    0.81064900   0.29176400  -0.71142100
C    2.23732300   0.36960700  -0.42757200
C    3.21461200  -0.65434300  -0.78596600
C    4.45886600  -0.37164900   0.08369600
C    4.37691500  -1.07954300   1.39654800
C    4.40371200   1.16587800   0.21349800
C    2.89890700   1.45294000   0.30025100
H    0.30507500   1.26524900  -0.71408000
H    0.39745600  -0.29981300   0.13446200
H    0.59415300  -0.29806100  -1.61359200
H    3.42574700  -0.36373600  -1.84648600
H    2.82221300  -1.68149900  -0.83816200
H    5.37443500  -0.68378400  -0.45232700
H    3.96724300  -2.09139300   1.45668800
H    4.96854800  -0.72003700   2.24220000
H    4.95668200   1.54517800   1.08155400
H    4.82115100   1.64917500  -0.68310100
H    2.53257900   2.45821800   0.03857700
H    2.52974200   1.28014800   1.34056400