14

C    3.02198500  -1.19332000   0.51692000
O    2.40865600   0.08605000   0.29876400
C    3.14209000   1.14147500   0.18721500
C    2.53442200   2.43782900  -0.03307500
N    3.53171000   3.31560300  -0.10446700
C    4.75401800   2.67057800   0.05592900
C    4.54941700   1.32718600   0.23815200
H    2.20128900  -1.91337300   0.57535700
H    3.58362800  -1.17578500   1.46138700
H    3.68238200  -1.43356600  -0.32802100
H    1.48002400   2.69270800  -0.12799800
H    3.41985200   4.31462000  -0.25455300
H    5.68461600   3.23469100   0.02604000
H    5.32032300   0.57648900   0.38884900