14

C    0.90469400   0.00684300  -0.04761800
C    2.39668900  -0.09391600  -0.17244000
O    2.79889600  -0.36715900  -1.41641300
C    2.99966100   1.58868200   0.24409400
N    4.34498900   1.69735600   0.18585600
H    0.59964700   0.36238100   0.94432500
H    0.49574000  -1.00558300  -0.19341500
H    0.48308600   0.65521900  -0.82786600
H    2.90272700  -0.66966300   0.61968300
H    3.66588000  -0.79314000  -1.44117600
H    2.58312400   1.67978200   1.25428900
H    2.46644400   2.14158800  -0.53805300
H    4.93225600   1.52984800   0.99892400
H    4.82062400   1.94885900  -0.67706900