14

C    1.03560400   0.05055300   0.04585300
N    2.46635800  -0.14752200  -0.13902300
C    3.00872400  -1.50216400  -0.04556000
N    3.15900600   0.90048300  -0.39186200
C    4.48231100   0.84888600  -0.43337900
C    5.17203600   2.00169200  -0.86422600
N    5.76864700   2.93229300  -1.22339100
H    0.81848900   1.12134800  -0.01411300
H    0.74847100  -0.36040700   1.02585300
H    0.50009400  -0.50339100  -0.74124800
H    2.17521700  -2.20773700   0.02952200
H    3.63499000  -1.58573700   0.85713000
H    3.60582400  -1.72761800  -0.94067000
H    5.07997200  -0.01935900  -0.12315300