14

C    0.98573700  -0.04702500   0.06752500
N    2.43852600   0.03864200  -0.02351000
C    3.17516300  -1.21138400  -0.06125200
C    3.06380000   1.26283100  -0.07024600
N    2.46120700   2.41218900  -0.03978300
C    4.50911400   1.26186900  -0.16040000
N    5.66164700   1.27556000  -0.23238200
H    0.63763900   0.44520600   0.98929600
H    0.69270300  -1.10125700   0.09164100
H    0.52547100   0.43519700  -0.80924400
H    2.93440700  -1.78206500   0.85142600
H    4.25406400  -1.04097600  -0.12948900
H    2.82356200  -1.79355800  -0.92962100
H    1.43894600   2.37225900   0.02392000