18

C    1.90971700  -0.68915500  -1.14231400
N    2.35208400   0.24023400  -0.14280700
C    3.38748900   1.17107400  -0.30792600
C    2.81730600   2.62958000  -0.71376700
C    2.97127700   3.02942100   0.77123600
O    3.38165800   4.29686100   1.08677300
C    3.90348300   1.81702500   0.99401800
H    0.84939400  -0.49811800  -1.38082600
H    1.97434500  -1.71468200  -0.73920600
H    2.52567300  -0.60029200  -2.04410900
H    1.82244400   0.26517500   0.73354400
H    4.10895900   0.78115500  -1.04035700
H    1.82906100   2.66458200  -1.19080000
H    3.56712100   3.09689500  -1.36855100
H    2.01304400   2.87889600   1.29539800
H    4.25840500   4.47812700   0.73083100
H    4.96048500   2.08934100   0.85735400
H    3.81168600   1.23330000   1.92133900