12

O    2.84621200  -1.70717400   0.07529000
N    3.74553500  -0.81377200  -0.05813200
C    3.44497900   0.51790300   0.47899100
O    2.36826600   0.59637200   0.98555000
C    4.51487400   1.55131400   0.31136300
C    5.70902300   1.06145500  -0.37232100
C    6.69864000   0.66112500  -0.93714300
H    2.08920800  -1.25217200   0.55257800
H    4.61641400  -1.09539300  -0.53455300
H    4.74950000   1.93177400   1.32182400
H    4.05479700   2.39969300  -0.22660600
H    7.59347300   0.32914300  -1.43873000