17

C    1.10904100  -0.31038600  -0.06514300
C    2.61650800  -0.14383400  -0.08512500
C    3.16151200   1.30974100   0.02076000
O    2.29994700   2.16625700   0.10991000
C    4.56981900   1.65230300   0.01682200
C    5.53925500   0.71297700  -0.08144700
C    6.98589300   1.01300200  -0.08961300
H    0.89021700  -1.38356300  -0.14741900
H    0.62744000   0.19743600  -0.91100600
H    0.66705400   0.05267400   0.87194700
H    3.06354200  -0.51030200  -1.02425700
H    3.10323600  -0.65521900   0.76205100
H    4.79731400   2.71744300   0.09832900
H    5.26631300  -0.34605100  -0.16142700
H    7.20461800   2.08434300  -0.00761300
H    7.43414900   0.61242100  -1.01430500
H    7.47344500   0.47035100   0.73760800