20

C    1.09691800  -0.03263300   0.23082200
C    2.59683800  -0.01848500  -0.06380300
C    2.93673700  -0.81161900  -1.32561700
C    3.10055200   1.41583700  -0.18624900
C    3.09045900   2.29578900   1.09112800
N    4.50084900   2.50461700   0.92404600
C    4.63488300   1.64187000  -0.21544300
H    0.84511200   0.51531500   1.15248600
H    0.74043900  -1.06396100   0.35897700
H    0.52796900   0.41595900  -0.59859800
H    3.12447100  -0.48165900   0.79170900
H    2.42817400  -0.38859800  -2.20612300
H    2.61005400  -1.85556100  -1.22266300
H    4.01849400  -0.82830100  -1.53211400
H    2.60750600   1.92944100  -1.02610600
H    2.87258300   1.77146100   2.04456000
H    2.51881000   3.24223500   1.10465200
H    5.16791300   3.11877800   1.40516800
H    5.10156700   2.14868500  -1.08035300
H    5.26395100   0.75894300   0.02148000