16

C    1.03964000  -0.29344300   0.22784800
C    2.46721900   0.04277000  -0.25460500
C    2.95849600  -0.88464000  -1.36345600
C    2.51516900   1.46131100  -0.70598400
O    2.68601400   1.96667100  -1.77225400
N    2.28861100   2.48430600   0.35766100
O    2.31676200   3.70266100  -0.02210400
H    0.69618600   0.33962300   1.06047600
H    1.02962000  -1.33121500   0.58604200
H    0.31851400  -0.20967800  -0.59756200
H    3.15063000  -0.01906700   0.61435000
H    2.29514700  -0.83529000  -2.23839800
H    2.96388600  -1.91744200  -0.99215100
H    3.97661100  -0.62850300  -1.68551300
H    2.13458300   2.34984300   1.36443300
H    2.48601700   3.64943800  -1.01339000