11

O    1.08788200  -0.11367200   0.12869700
C    2.37281400   0.05452000   0.03155600
C    3.03117900   1.31021200  -0.03814700
C    4.40585200   1.24110300  -0.13795700
N    4.98879800   0.05222600  -0.16165800
C    4.40277500  -1.12987900  -0.09949300
N    3.09533000  -1.07043700  -0.00345400
H    0.58953100   0.71532900   0.15156700
H    2.49622400   2.26145000  -0.01468000
H    5.05247200   2.12417500  -0.20016400
H    4.95978000  -2.06983800  -0.12407700