15

C    0.94746600  -0.04837700  -0.01020900
C    2.40987600   0.10133800   0.00041000
C    3.24679000   1.21951600   0.00702900
C    4.54305200   0.73075200   0.01482200
C    5.84632600   1.40930200   0.02471400
N    4.51298800  -0.68373500   0.01320600
N    3.27062200  -1.00262600   0.00483500
H    0.45477000   0.92976400  -0.00457200
H    0.61488800  -0.62627000   0.86902100
H    0.62716300  -0.60882600  -0.90534000
H    2.93042900   2.25955500   0.00610200
H    5.73595400   2.49883200   0.01896900
H    6.43914200   1.08825800  -0.84860300
H    6.42058600   1.09672200   0.91355700
H    3.00074900  -1.98754800   0.00203700