16

C    0.79663500   0.01301300   0.36052100
C    2.25706600  -0.09102400  -0.01296700
N    3.20852400   0.83935800   0.53916300
C    4.19218000  -0.10102400   1.01143500
C    5.64776200   0.08526100   0.65085000
C    3.24401200  -1.21603500   0.45126300
O    3.26457900  -2.38661200   0.40123300
H    0.26437100  -0.84039400  -0.08082800
H    0.35050700   0.93422600  -0.04044700
H    0.66510000  -0.01159400   1.45060100
H    2.39281600  -0.09743200  -1.12069000
H    3.19120300   1.86115400   0.58164600
H    4.05837300  -0.20703400   2.11434500
H    5.77876900   0.15890100  -0.43708000
H    6.20988500  -0.78386900   1.01827500
H    6.06195900   0.98361400   1.13027800