18

C    0.75839700  -0.61205100   0.02202400
C    2.18878800  -0.16338400  -0.24838500
N    2.81438400  -0.91164800  -1.26856100
C    2.39972700   1.35114000  -0.45296200
C    3.84948800   1.76680200  -0.55478700
C    4.52874300   1.95275700  -1.85936800
O    4.05884700   3.03321700  -1.10064200
H    0.38971200  -0.11394600   0.92721700
H    0.69055300  -1.69764500   0.18364000
H    0.10680400  -0.32741200  -0.81700600
H    2.80823700  -0.42987200   0.66003000
H    3.65066500  -0.54544400  -1.73776800
H    2.48900500  -1.84616700  -1.53609900
H    1.93583900   1.85290600   0.40895600
H    1.84817000   1.67373200  -1.35028500
H    4.46948800   1.53301200   0.32388400
H    3.98269200   1.76449000  -2.79514000
H    5.61837400   1.84974900  -1.92163300