18

C    1.40976800  -0.23883800  -0.95335100
O    2.04799200   0.40821500   0.12797100
C    3.28727200   0.94045700  -0.15317100
C    3.20175900   2.32989800  -0.85428000
C    3.12032400   3.08128700   0.45741200
N    3.82108500   4.20572000   0.69398900
C    3.84591400   1.55804600   1.10180300
H    0.45578700  -0.62501400  -0.57781200
H    2.01826300  -1.07988400  -1.32622800
H    1.20761200   0.45515200  -1.78836900
H    3.96655600   0.22289600  -0.65212300
H    2.32038400   2.46277000  -1.49924600
H    4.11536400   2.57687000  -1.41378400
H    2.15285000   3.03955400   0.97718600
H    4.59495800   4.48729500   0.09517400
H    3.66089200   4.76378800   1.53009200
H    4.92815400   1.72322600   1.13018100
H    3.38389500   1.31169100   2.06488500