18

C    1.03983800  -0.28425500  -0.11850600
C    2.55626300  -0.13437700   0.03348200
C    2.93929800   1.32955600   0.04618100
C    4.54753700   1.58026000   0.02963700
N    5.16289300   1.04250600   1.15685700
C    5.23089200   1.74054700   2.39927600
O    4.77305200   2.83898600   2.48359000
H    0.77030000  -1.34960700  -0.11774700
H    0.68525300   0.15080000  -1.06420000
H    0.50338000   0.20299400   0.70827100
H    3.05928800  -0.65170600  -0.80056700
H    2.88423600  -0.62457800   0.96550900
H    2.56764800   1.87295600   0.92826900
H    2.60823000   1.85860900  -0.86038300
H    4.64992300   2.67637100   0.03839900
H    4.93036400   1.09792600  -0.88013000
H    5.49890400   0.07442500   1.13396200
H    5.71670700   1.16637300   3.21059700