18

C    3.27458900  -0.93599500  -0.81713700
C    2.82193100  -0.09021100   0.35069200
C    3.10366200   1.53945200   0.23901100
C    2.26358400   2.27567100   1.26963100
C    4.52679300   1.54379500   0.46133000
C    5.47943900   1.46946700  -0.55829700
H    2.79733300  -1.92381800  -0.72859600
H    4.36010900  -1.10715000  -0.83675900
H    2.95884400  -0.51267600  -1.78195600
H    3.20780500  -0.44942200   1.31549500
H    1.72313600  -0.05567800   0.42393700
H    2.83169600   1.79031100  -0.79780100
H    2.48178000   1.93221300   2.29168500
H    1.19508900   2.12034800   1.07082600
H    2.46347000   3.35561200   1.21710900
H    4.87941300   1.56912100   1.50129200
H    5.18233000   1.28358900  -1.59563600
H    6.54182300   1.62139600  -0.34475600