14

C    0.94594200  -0.05244000  -0.00952200
C    2.46391800   0.05438000   0.10210400
C    3.12706400  -0.74233600   1.22166200
C    2.98790400  -0.78658900  -1.29719300
O    3.61942200  -0.27547000  -2.12735700
C    2.94758300   1.41624600   0.00817300
N    3.31375000   2.51361600  -0.02594800
H    0.54813400   0.45354400  -0.90050900
H    0.53583500   0.46940400   0.87312500
H    0.61213100  -1.09896200   0.02277500
H    2.82517400  -0.25493000   2.16553600
H    4.22472900  -0.70917300   1.17507200
H    2.77172600  -1.78205500   1.24158900
H    2.63073500  -1.84370300  -1.25858600