18

C    1.16457300  -0.06206000   0.53705300
N    2.10505700  -0.03371800  -0.54702800
C    2.76847400  -1.19729800  -1.07805700
C    3.54378100  -0.66537900  -2.23904400
C    3.36710900   0.65473900  -2.37849400
C    3.95208200   1.58017900  -3.39001600
C    2.43647200   1.14662700  -1.30223300
H    1.20750200   0.88192200   1.09673700
H    1.37613800  -0.91308400   1.19676300
H    0.14395200  -0.17758600   0.12744900
H    2.00862700  -1.96471800  -1.33477500
H    3.38840200  -1.65615900  -0.27942300
H    4.16828700  -1.30118500  -2.86582500
H    4.54724900   2.36829900  -2.90336700
H    3.16059200   2.07791200  -3.97130100
H    4.60255800   1.03774400  -4.08686200
H    2.89028000   1.89980800  -0.62523700
H    1.50565800   1.61467400  -1.68390100