14

O    2.89324500  -0.86176900  -0.86126700
C    2.01077400   0.11009400  -0.44029500
C    2.70851100   1.35441500   0.02549200
C    1.90011400   2.42405800   0.48116600
N    4.02369000   1.51705200   0.03851400
C    5.15652300   0.66385000  -0.34384200
O    6.23497700   1.12900200  -0.20158900
H    2.42092800  -1.64938600  -1.15338400
H    1.37601800  -0.21303400   0.41133800
H    1.31016800   0.44042300  -1.23568400
H    0.81193000   2.32901200   0.48590800
H    2.34092800   3.35967000   0.83505300
H    4.37865800   2.41624300   0.38093600
H    4.87260000  -0.32734500  -0.72554500