15

C    0.94293900   0.04139000  -0.00951600
N    2.40535900   0.04142000  -0.00201400
C    3.20663300   1.10546400   0.00719200
C    4.55820600   0.58181300   0.01127400
N    4.52811100  -0.73163200   0.00461400
C    3.23051500  -1.08578400  -0.00344700
C    2.75051200  -2.47289100  -0.01423800
H    0.59076800   1.07849500  -0.00597000
H    0.56758900  -0.47068800   0.88562900
H    0.57682700  -0.46153200  -0.91363400
H    2.84138100   2.13267300   0.01044500
H    5.48086400   1.16477300   0.01868900
H    1.65961400  -2.56219500  -0.00690900
H    3.17749000  -2.99985900   0.85522100
H    3.16257800  -2.98069300  -0.90246400