13

C    0.95654300  -0.00967600  -0.00890700
C    2.43931300   0.07991300  -0.00039200
C    3.20618500   1.24886200   0.00428800
S    4.87084800   0.95032700   0.01298600
C    4.60050400  -0.80498200   0.01110700
N    5.57214400  -1.61218400   0.01612300
N    3.21971400  -1.01995800   0.00344800
H    0.50856000   0.99013300  -0.00744900
H    0.60049600  -0.55636000   0.87806900
H    0.61063600  -0.54901000  -0.90440600
H    2.80095100   2.26106400   0.00254900
H    5.33131100  -2.60638900   0.01447600
H    2.83754100  -1.96414900   0.00107800