18

C   -1.76821100   0.81433100   0.57927800
C   -1.15440600  -0.32076400  -0.26381600
C   -0.33327300  -1.46209400   0.29104700
C    1.11428300  -1.40273000  -0.23436900
C    1.72981600   0.02219300  -0.22968300
C    0.83089600   1.07720100   0.40766000
N   -0.51561100   0.93035700  -0.07147800
H   -2.61306100   1.32172500   0.10021800
H   -1.75314700   0.81799600   1.67543200
H   -1.67275700  -0.45912400  -1.22310900
H   -0.34639100  -1.38415600   1.39108800
H   -0.80317000  -2.41825200   0.02795400
H    1.72472800  -2.08688600   0.36973400
H    1.13663400  -1.80151600  -1.25811500
H    2.69026200   0.04019200   0.30258800
H    1.95106000   0.33708100  -1.25973300
H    0.78719600   1.00978400   1.51349500
H    1.15388100   2.11118700   0.19394900