15

C    1.00145000   0.01577500   0.08092800
C    2.47255600   0.03427100  -0.00083600
C    3.18078800   1.28198200  -0.12303500
C    4.54498600   1.29598400  -0.22935300
C    5.26117200   0.06602400  -0.22195900
C    4.58312000  -1.17983500  -0.10480800
C    3.21895800  -1.19709600   0.00166600
H    0.59274100   0.93763900   0.51658900
H    0.62035600  -0.87043400   0.60632300
H    0.61094000  -0.04164200  -0.95772500
H    2.61031000   2.21328600  -0.12561300
H    5.09033100   2.23698300  -0.31930300
H    6.35080400   0.07845300  -0.30895600
H    5.15718900  -2.10794900  -0.10072800
H    2.67731100  -2.14101200   0.09342000