16

N    0.97430000   0.02813600  -0.39658900
C    2.36080000  -0.14316100  -0.36659800
C    3.02741400   1.16121800   0.24619900
C    4.53950000   0.94770100   0.31586100
C    5.42040000   1.42371600  -0.78790500
N    5.22968700   2.18012600   0.43199900
H    0.39678400  -0.16050300   0.42375300
H    0.50937800   0.48420600  -1.18268100
H    2.76061100  -0.28199500  -1.38103700
H    2.62827600  -0.98995700   0.28334800
H    2.62233800   1.34948700   1.25200500
H    2.79434300   2.02463900  -0.39190000
H    4.85942300   0.08473500   0.91344900
H    4.99037000   1.86860100  -1.69107000
H    6.37476700   0.90849700  -0.93514500
H    5.99060900   2.23630700   1.10616100