15

N    1.15320500   0.03211100   0.70670000
C    2.44468900  -0.04923400   0.25620000
C    2.76467900   1.20282900  -0.85380100
O    4.08869500   1.10560600  -1.09973200
N    4.52722000   0.00098300  -1.78630200
C    3.92323900  -1.09049900  -1.51956700
C    2.79410400  -1.29547400  -0.55087200
H    0.91183000   0.61662400   1.50315400
H    0.37634600  -0.36077100   0.17956700
H    3.15896300   0.17880900   1.05993600
H    2.55630100   2.16862700  -0.38089400
H    2.12620200   0.98260700  -1.72452400
H    4.30482100  -1.95582900  -2.07075700
H    1.91382200  -1.63274100  -1.12539800
H    3.05911900  -2.12219700   0.12771200