20

C    2.73860100  -0.90046700  -1.04335100
C    2.63853600  -0.17889900   0.29566300
C    3.33362800   1.18454400   0.25674500
N    3.24470500   1.87489300   1.52178600
C    3.04945600   3.28110800   1.70367500
C    4.84210600   1.09882400   0.04498600
C    5.52106400   1.95014300  -0.73046800
H    2.21740100  -1.86515200  -0.98776600
H    3.78314300  -1.09935800  -1.32364100
H    2.27293700  -0.31447300  -1.84940200
H    3.09354600  -0.79153400   1.09339100
H    1.58299800  -0.02448100   0.56850700
H    2.88443000   1.83601200  -0.50809400
H    3.42549800   1.31336400   2.36033200
H    2.99823300   3.78893900   0.73425400
H    3.85952400   3.70084200   2.32164300
H    2.10357600   3.43658700   2.25518900
H    5.35097300   0.29091700   0.58235700
H    5.03255400   2.77201600  -1.26286300
H    6.59575300   1.82693600  -0.88652400