16

C    0.96481500  -0.00650900  -0.02024400
C    2.48729600  -0.00010500   0.03757400
C    3.09936900   1.14585900   0.85415300
N    4.37551300   0.56579100   1.30828800
C    4.38700900  -0.73807400   1.23935600
O    5.28352400  -1.53019000   1.57596900
C    3.06167900  -1.27997500   0.69413600
H    0.59916800  -0.85343400  -0.61632100
H    0.60604500   0.91566200  -0.50019200
H    0.52127100  -0.06829500   0.98468900
H    2.89515400   0.05413900  -0.98415400
H    2.49070800   1.41839000   1.73072800
H    3.29417000   2.04820500   0.26065000
H    5.14055700   1.10300500   1.71423500
H    3.20868600  -2.13105700   0.01671700
H    2.49031900  -1.62189200   1.57498300