13

C    0.90890800  -0.05028100  -0.00522800
C    2.38043700  -0.00066100  -0.00197500
C    3.28222100   1.13945500  -0.00361300
O    2.86261100   2.36022400  -0.00704200
N    4.56352800   0.75232000  -0.00092600
C    4.52340200  -0.55759100   0.00221200
N    3.23144500  -1.04526300   0.00169000
H    0.49464000   0.96452500   0.00524400
H    0.53764600  -0.59810600   0.87620900
H    0.54212900  -0.57636100  -0.90193200
H    3.60692100   2.98854800  -0.00748800
H    5.39093900  -1.21941400   0.00508600
H    2.96869100  -2.02843400   0.00389400