14

O    1.23897900  -0.36145600   0.11829500
C    2.52351300  -0.37061900  -0.01549800
C    3.09643200  -0.41245900  -1.37217200
C    3.21269200   1.04736400  -1.13549600
C    4.48806400   1.71456600  -0.71659700
C    5.16857700   2.12399400  -1.95185500
N    5.66560600   2.41218100  -2.95315100
H    0.93672400  -0.27159300   1.03787200
H    3.16068200  -0.40187000   0.87840600
H    2.36662100  -0.70106100  -2.13851800
H    4.05461900  -0.94407300  -1.43426600
H    2.35949000   1.67842000  -1.40983600
H    5.15102000   1.03689000  -0.15563400
H    4.29315300   2.60598300  -0.10063700