14

C    0.51642100  -0.32211700   0.19774700
C    1.94045100   0.12404900   0.07784500
N    2.92653900  -0.66637800   0.51568700
N    2.24529500   1.31686000  -0.37049600
C    3.61345100   1.82116600  -0.51265100
C    3.65537700   3.24310700  -0.17979600
N    3.65699500   4.36716600   0.07956800
H   -0.17220000   0.53083100   0.14418900
H    0.36393200  -0.84732800   1.15098400
H    0.29709400  -1.02512900  -0.62177300
H    2.89584800  -1.66005200   0.25590600
H    1.48382000   1.93706100  -0.64787500
H    3.97106400   1.66466500  -1.54305700
H    4.26571800   1.24340400   0.16439300