18

C    0.97369400   0.01111800   0.10422000
C    2.49034900   0.00178100  -0.06413700
N    3.00323800  -0.64264900  -1.25721300
C    3.06302600   1.43400300  -0.07627400
C    3.26712400   2.16327400   1.24924700
O    4.68209800   2.15406200   1.09366500
C    4.57634500   1.49831800  -0.15850300
H    0.66102100   0.51740100   1.03077500
H    0.59275300  -1.01893100   0.14487300
H    0.48872900   0.51969300  -0.74383500
H    2.94089900  -0.51752600   0.80102900
H    2.45252700  -0.39835800  -2.07979200
H    2.97402700  -1.65639400  -1.17545500
H    2.55147000   2.04086800  -0.84027400
H    3.01337900   1.65956600   2.20642700
H    2.93960400   3.21865600   1.36423300
H    5.09152100   2.11398900  -0.92954300
H    5.15150900   0.54406400  -0.13248100