15

C    1.07419200   0.20284300   0.11199500
C    2.55246100   0.02903200   0.01683100
C    3.29268800  -1.10308200  -0.06489600
C    4.74072700  -0.77706800  -0.14190900
N    4.75005700   0.65654200  -0.09575600
C    3.50791300   1.14053200  -0.00476100
N    3.34499100   2.46649000   0.04829700
H    0.56937900  -0.77066100   0.11087500
H    0.68815800   0.78456100  -0.73912700
H    0.79583400   0.72668500   1.03932100
H    2.91516700  -2.12598000  -0.07535900
H    5.32863500  -1.19786600   0.69657000
H    5.22172400  -1.14021300  -1.07063400
H    5.57551800   1.25486400  -0.12625400
H    2.35132000   2.71845700   0.11683500