17

C    2.72472900  -0.91244000   0.19332500
O    4.00119500  -0.31546300   0.09446400
C    3.98937200   1.06236400   0.07658100
C    5.40246500   1.56754600  -0.03077200
C    6.44909200   0.64055700  -0.09271300
C    5.73241300   2.94846700  -0.07289400
C    4.80963900   3.96959400  -0.02085000
H    2.87589800  -1.99743300   0.19736900
H    2.08984100  -0.63939600  -0.66731400
H    2.21740200  -0.61493700   1.12737400
H    3.53217700   1.49002000   0.99545500
H    3.40600800   1.46590600  -0.77962600
H    6.22232400  -0.42820500  -0.06196900
H    7.48848900   0.97140500  -0.17132900
H    6.79175700   3.21079200  -0.15193300
H    3.73436200   3.78605500   0.05830000
H    5.13404800   5.01289200  -0.05805000