16

C    2.16747400  -0.08318400   1.42962800
C    2.70893000   0.33155100   0.04956600
C    3.05051700   1.78907400   0.01920200
C    2.08647200   2.75403900  -0.28104600
C    4.34004400   2.27719700   0.34732800
N    5.29054300   1.40409000   0.63979700
O    6.40855400   1.98689100   0.93988000
H    1.90150200  -1.14815000   1.40946200
H    1.26691000   0.48563500   1.70348100
H    2.92534200   0.06783100   2.21157300
H    1.94829600   0.13492400  -0.72097100
H    3.59717200  -0.26489400  -0.19540400
H    1.06337200   2.46146300  -0.53516300
H    2.32275800   3.82228600  -0.27712500
H    4.56958600   3.35120500   0.36310200
H    7.05537600   1.28330200   1.13107600