15

C    2.36505800  -0.25382900   1.40278800
C    2.08634800   0.50239600   0.11264300
N    2.99185400   1.66945400  -0.03948800
C    2.68163600   2.86789500   0.38221300
N    1.59525900   3.15552500   1.06844000
C    4.30528900   1.45368400  -0.63528600
O    4.61657500   0.38930600  -1.03569300
H    1.67242200  -1.10442200   1.46256100
H    2.20527100   0.37707400   2.28830000
H    3.38804000  -0.65364800   1.41671400
H    1.05613300   0.87940600   0.06197400
H    2.26134500  -0.12952700  -0.76789900
H    3.41894200   3.68196200   0.24101100
H    0.98984900   3.94936500   0.82535000
H    4.92694300   2.37414000  -0.65329200