19

N    2.57607600   1.01247900   0.47079500
C    1.90383000   2.26431600   0.75130800
C    2.96535600   3.31055800   1.15688000
N    4.08977100   3.15701800   0.30268000
C    5.06744200   4.13366900  -0.04434400
C    6.37516000   3.44695700  -0.43191900
O    6.01135300   2.40900600  -1.29340100
H    2.11201700   0.47470300  -0.25622800
H    2.65808800   0.41542500   1.29115400
H    1.14127900   2.21996100   1.54521900
H    1.39907400   2.61772300  -0.15954300
H    3.31803700   3.10305900   2.19108300
H    2.60756000   4.35203800   1.15146800
H    4.15709700   2.19753300  -0.10764400
H    5.17980000   4.87437800   0.76163600
H    4.66333100   4.66898200  -0.93079400
H    6.88035800   3.08001200   0.48056200
H    7.03106600   4.19802100  -0.90386900
H    6.78577500   1.91333400  -1.57728500