9

C    0.99592700   0.02593700   0.00011500
C    2.22481700  -0.03096000   0.00034400
C    3.60806800  -0.07311400   0.00062700
N    4.33174200   1.10085900   0.00180500
O    5.56690500   0.70150300   0.00175100
C    5.58389100  -0.67633800   0.00069100
N    4.40310600  -1.17602700  -0.00002200
H   -0.08766400   0.07326600  -0.00008700
H    6.56393500  -1.15741600   0.00054600