15

C    0.96118400  -0.17329600   0.44083800
C    2.24642900   0.31544900  -0.17898800
C    3.18224200   1.26360000   0.57135100
C    4.09994100  -0.00539000   0.64473600
O    3.27670000  -0.70769500  -0.23009800
C    5.51002900  -0.06326000   0.42650300
C    6.71495400  -0.11336800   0.28160000
H    0.54646900  -1.01496500  -0.13001700
H    0.23368500   0.65050400   0.42644800
H    1.12573100  -0.48722800   1.48239700
H    2.08462300   0.61217700  -1.23629700
H    2.83844300   1.67927800   1.52541600
H    3.64611600   2.04025500  -0.05069700
H    3.90157200  -0.44115400   1.66883800
H    7.78538300  -0.14789700   0.14183800