13

C    1.04692000   0.46169900  -0.57950200
C    2.29621500   0.32310900  -0.10552500
C    3.22337600  -0.86930800  -0.24081800
C    2.60571800  -2.13815200  -0.10571900
C    2.07302500  -3.23459200   0.04048300
C    2.96953800   1.38995800   0.67100400
O    4.01429400   1.16027500   1.22697100
H    0.51608200   1.41348800  -0.48256400
H    0.51535200  -0.35658900  -1.07124300
H    3.96430500  -0.68511900   0.60846000
H    3.86450600  -0.81878300  -1.14059500
H    1.61714600  -4.20628800   0.16736600
H    2.50349100   2.39814300   0.72238300