17

C    2.11458000   0.02354900  -0.89867000
C    1.85113500  -0.06519300   0.57244000
C    0.38125000   0.03574400   0.48202600
C   -0.45083400   1.26695800   0.41557200
C   -1.76894400   0.74173700  -0.16759100
C   -1.74495700  -0.73255600   0.22292800
O   -0.31283000  -1.02678400   0.40820800
H    2.31039400   0.98633800  -1.37575600
H    2.06102900  -0.87722500  -1.51399000
H    2.15523800  -1.02768700   1.00589100
H    2.27458800   0.78083300   1.13006700
H   -0.55627000   1.62146700   1.45961500
H    0.02916500   2.08017000  -0.14441700
H   -2.64855500   1.25856200   0.23404300
H   -1.77682400   0.85641400  -1.26046700
H   -2.10747800  -1.43380200  -0.53631100
H   -2.21859900  -0.95759600   1.18826900