17

C    2.07047100  -1.04859400   0.77470400
C    3.06196400  -0.28405500  -0.11227200
C    3.10650700   1.16172700   0.12941300
C    4.27045700   1.93340200   0.12512700
C    4.26076700   3.33849800   0.34711200
C    5.30183400   3.90402400   1.37213700
O    5.42741300   4.04702300   0.02263400
H    2.03232100  -2.09876300   0.45961100
H    1.05559200  -0.63315500   0.69717300
H    2.38316900  -1.01852600   1.82752000
H    2.71439800  -0.36912600  -1.16874400
H    4.07134100  -0.72252800  -0.09494100
H    2.15106800   1.67613000   0.30221400
H    5.24226700   1.45549200  -0.04820700
H    3.31722300   3.89743000   0.31331800
H    6.00896200   3.23195900   1.87337600
H    4.89342300   4.74480200   1.94855000