19

C    1.09121500   0.12611500   0.19653600
C    2.60275500  -0.04316700  -0.10119300
C    2.84016400  -0.77887200  -1.42270800
C    3.17971700   1.32396200  -0.10151100
C    3.85546500   1.94679800   1.06349400
C    5.02432100   1.45520600   0.30519600
O    5.77035700   2.17920900  -0.47070500
H    0.91187300   0.62837300   1.15757900
H    0.63396500  -0.87242400   0.24225800
H    0.58995900   0.69433800  -0.60064800
H    3.04266600  -0.61658400   0.73278700
H    2.39715800  -0.22897300  -2.26687100
H    2.37146200  -1.77168100  -1.38566800
H    3.91173100  -0.91995600  -1.62582300
H    2.99457100   1.95957200  -0.97725100
H    3.70041100   1.42398200   2.01592100
H    3.77676600   3.03866000   1.14159900
H    5.37500500   0.42309600   0.40617600
H    5.55350600   3.12564000  -0.46413800