12

O    0.92348300  -0.12738700   0.68106800
C    1.86512900   0.31062200   0.25807400
C    2.82301000   1.25946200  -0.29445700
C    4.27651000   1.17936000   0.22512800
C    4.97750200  -0.07067000  -0.23501500
N    4.33257700  -1.16841700  -0.17013000
O    3.19993700  -1.41950800   0.20129300
H    2.37353300   2.24245300  -0.06235700
H    2.76543500   1.11869000  -1.39021100
H    4.29499100   1.26202400   1.32452100
H    4.79815200   2.06139600  -0.16892900
H    5.99462400  -0.08873900  -0.62908400