16

C    0.84332800  -0.06327700  -0.05627400
C    2.28741100  -0.11885900   0.06545400
C    3.50970000  -0.18258200   0.19084300
C    4.87244600  -0.27330900   0.33863400
C    5.80224500  -0.54053100  -0.82311700
C    6.09407300   0.87143200  -1.12733700
N    7.18529100   1.48539400  -0.77985300
H    0.44211500   0.80891800   0.48136000
H    0.39701100  -0.96721600   0.38812300
H    0.53558600  -0.00854200  -1.11009000
H    5.32386800  -0.10586400   1.32199500
H    5.28514300  -1.03393500  -1.65679900
H    6.69402800  -1.11306700  -0.53172900
H    5.31817300   1.47604100  -1.60964100
H    7.96889700   0.98733200  -0.36030300
H    7.29349900   2.48994400  -0.90423500