13

C    0.95797500   0.01466400  -0.00843400
N    2.41651800   0.04502500  -0.00020300
C    3.22471400   1.10372900   0.00246900
C    4.55678100   0.64203600   0.00908400
N    4.51555900  -0.69416100   0.00998900
C    3.18601200  -1.15000600   0.00422000
O    2.77818800  -2.26865700   0.00369500
H    0.58222200   1.04306000   0.00808800
H    0.60377500  -0.53231500   0.87488500
H    0.61229200  -0.50044700  -0.91415200
H    2.86677700   2.13254600  -0.00003100
H    5.47948100   1.22010800   0.01305300
H    5.30970400  -1.33222300   0.01450600