18

C    3.07927500  -0.28094600   0.71168400
O    2.36610200   0.87474300   0.23366200
C    2.88593900   2.04249900   0.08238800
C    1.94299800   3.08133200  -0.40591500
C    4.25181900   2.30329700   0.35892000
C    4.90674000   3.61369500   0.15246400
N    6.15577800   3.69131200   0.83907300
H    2.33899300  -1.08536900   0.73424500
H    3.46412900  -0.09057400   1.72232900
H    3.89013800  -0.53152000   0.01491200
H    1.71449200   3.78455300   0.41226500
H    1.00961400   2.61649600  -0.74321700
H    2.38984900   3.66415800  -1.22463100
H    4.90102300   1.49957000   0.71914600
H    4.18062400   4.43079700   0.37177500
H    5.07571000   3.71023500  -0.94285600
H    6.05946900   3.82874500   1.84098600
H    6.77930100   4.39820200   0.46351600