16

C    1.60581300   3.22810600  -0.11290700
C    2.61989300   2.55241000  -0.64054900
O    3.18053500   1.48562700   0.02404600
C    4.50578300   1.26263500  -0.19183800
C    5.52374500   2.18501800   0.59703400
N    6.07409200   0.98414400   1.13909500
C    5.06458400   0.08924800   0.63211000
H    1.14327500   4.03694800  -0.67866900
H    1.20195300   2.97117700   0.86844000
H    3.04479600   2.76011400  -1.62995400
H    4.78369900   1.20297000  -1.26088200
H    4.96493000   2.77167700   1.35524200
H    6.25778800   2.84120900   0.10337900
H    7.03698800   0.78135700   1.42499900
H    5.48383300  -0.78712300   0.10993700
H    4.36890800  -0.26612700   1.41655600