17

C    0.71157600  -0.75546100  -0.10953500
C    2.22900900  -0.77493600   0.05501700
C    2.81271100   0.60499800  -0.13143700
O    4.27326700   0.50455300   0.02069700
C    5.01056800   1.54799100   0.12040800
N    6.30519800   1.38686900   0.26310200
N    4.47791800   2.80365800   0.18831300
H    0.30621700  -1.76572000   0.03092400
H    0.41532500  -0.41646300  -1.11357500
H    0.23031900  -0.09957200   0.63133500
H    2.68713200  -1.45461900  -0.68002700
H    2.50302300  -1.14243000   1.05581100
H    2.44718900   1.31546300   0.62682800
H    2.61876700   0.99950800  -1.14141700
H    6.70205700   0.44996600   0.23728900
H    6.91810700   2.18124000   0.42255700
H    4.02643500   3.12637100  -0.67944300