15

N    0.87001300  -0.01367200   0.30563700
C    2.17855100   0.04829200   0.10794700
N    2.91097300  -1.01694500  -0.12003900
C    2.92106400   1.33224600   0.20553600
C    2.31824000   2.52409100   0.21314700
C    4.41412800   1.12470900   0.19455100
O    4.67645100   0.16683900  -0.81316900
H    0.35704100   0.78605200   0.65790600
H    0.36218300  -0.88843500   0.22502700
H    2.63898200  -1.80487600  -0.70835100
H    1.23331100   2.65161700   0.18653300
H    2.90630500   3.44471200   0.23022400
H    4.75663900   0.76925100   1.18073200
H    4.92938300   2.06897600  -0.03800200
H    5.40070900  -0.41523100  -0.54777900