14

C    0.79815200   0.12937200  -0.12314200
C    2.21579100  -0.29396400   0.03625400
C    2.58972800  -1.73211800  -0.10287600
N    3.08550300   0.61938400   0.28358500
N    4.35682900   0.53114900   0.47397900
C    5.22480800   1.41929700   0.71371100
H    0.68483300   1.21873500  -0.09898400
H    0.20439000  -0.32128100   0.68848600
H    0.40282900  -0.27227400  -1.06841700
H    1.89049400  -2.34727700   0.48180600
H    3.62307800  -1.92951700   0.20312400
H    2.45930800  -2.01612800  -1.16025800
H    6.26192500   1.09290600   0.83926100
H    4.95366900   2.48119500   0.79440200