17

C    5.26198000   4.05069800   2.20625400
C    5.34078000   3.67037300   0.74800700
O    6.08963200   2.45796700   0.60613800
C    5.93674400   1.70159400  -0.49006500
C    6.89491100   2.35041800  -1.65611300
C    8.32638200   2.06571200  -1.63607600
O    7.36947500   1.44559400  -2.52513100
H    4.73320700   5.00983200   2.29014200
H    6.26414600   4.16729500   2.63928100
H    4.70493600   3.29616400   2.77729000
H    5.90171100   4.43273100   0.16767300
H    4.35433000   3.53414800   0.27495900
H    4.91892400   1.70110100  -0.91387800
H    6.34364800   0.69743800  -0.31099600
H    6.40893200   3.26188700  -2.04107800
H    8.73350900   1.39805200  -0.87012400
H    9.02697300   2.73761800  -2.13909300