17

C    1.12793100  -0.28556100   0.28789400
C    2.63425100  -0.10363900   0.07706600
C    2.98431000   1.36544300   0.04773200
O    2.85693900   1.95460400   1.24285900
C    4.73894300   1.40379200  -0.40002700
N    5.23204900   2.66144200  -0.48446600
H    0.89052500  -1.35792800   0.29487300
H    0.54515100   0.18181400  -0.51935900
H    0.80989900   0.14329100   1.24752900
H    2.94589100  -0.57154700  -0.86823700
H    3.19304100  -0.58657800   0.89364700
H    2.54835500   1.93016100  -0.79392900
H    2.66072400   2.89775100   1.17333600
H    4.70022300   0.87476700  -1.35955500
H    5.13620600   0.82064000   0.43910300
H    5.22498000   3.18243300  -1.35765200
H    5.61158000   3.13844800   0.32950400