18

C    0.50869100   1.12650400  -0.49643400
N    1.74507700   0.58341100   0.00324000
C    2.87949900   1.25944100   0.34674500
C    3.86800800   0.40177000   1.12015100
O    3.70576000  -0.90498800   0.65736200
C    3.45798600   2.29192900  -0.76293700
C    2.89235100   2.77511900   0.49822600
H   -0.09710400   1.51077600   0.34196700
H   -0.05455100   0.33616600  -1.00508300
H    0.69103200   1.95058200  -1.20056600
H    1.85089500  -0.43263700   0.11782100
H    3.62837000   0.49621000   2.19632900
H    4.88953600   0.79060400   0.96930600
H    4.18360300  -1.52997000   1.21193000
H    2.87410100   2.35297600  -1.68412900
H    4.53912500   2.20118700  -0.89031600
H    3.57919100   3.12881500   1.27329000
H    1.92151300   3.27705600   0.48430400