19

C    0.87812200  -0.00039200   0.01748900
C    2.39986800  -0.07282000   0.02100700
C    3.02820900   1.32766300   0.00256800
C    4.45256400   1.40357800   0.00248200
C    5.70190900   1.46686400   0.00235500
C    7.12937200   1.53355500   0.00139400
C    7.76128600   2.92432200  -0.00316500
H    0.45111500  -1.01173300   0.03113000
H    0.50025900   0.50913900  -0.88151800
H    0.49735400   0.53438600   0.90045900
H    2.76174300  -0.63384300  -0.85435500
H    2.75877000  -0.60899700   0.91301400
H    2.68507600   1.95751900   0.85545900
H    2.68785700   1.93273300  -0.86939300
H    7.45853000   0.90967700  -0.86029000
H    7.46187200   0.91279800   0.86367800
H    7.46554700   3.48998400  -0.89671400
H    8.85358300   2.82162500  -0.00507900
H    7.46913200   3.49382200   0.88913800