10

C    0.89382200   0.00480400   0.12612700
C    2.09730300   0.06961600  -0.08267400
C    3.52986800   0.11809500  -0.24126700
C    4.13126900  -0.66568300  -1.29183200
C    4.68527600  -1.36575900  -2.12792000
C    4.15046400   1.42359100   0.00874600
N    4.64099800   2.44881100   0.21039300
H   -0.17486200  -0.03834700   0.29425300
H    3.83470500  -0.52265500   0.66210000
H    5.17058500  -1.97075200  -2.88333400