15

O    0.69043800   0.21971800  -0.60954400
C    1.93939700  -0.35278100  -0.44688300
C    2.89101600   0.80352500  -0.23909500
N    2.60491400   2.03570400  -0.21753300
N    4.26441100   0.53554400  -0.04181100
C    4.88769400  -0.63841100  -0.00984600
C    6.25469900  -0.74185100   0.19488500
H    0.01748000  -0.45344200  -0.74766800
H    2.27234000  -0.93130000  -1.33268800
H    2.00000600  -1.02400700   0.43400200
H    1.59680500   2.16841900  -0.36562900
H    4.79940000   1.40230700   0.08754400
H    4.27635400  -1.53325000  -0.15263400
H    6.88208800   0.14260600   0.33980600
H    6.72895800  -1.72466200   0.21409600