16

C    1.05814800  -0.02671200   0.38585900
C    2.41055400   0.00413000  -0.02332400
C    3.21372600   1.22777400  -0.18661700
C    4.49409600   0.78175300  -0.90563500
C    4.66438900  -0.67453400  -0.45210300
C    3.21998700  -1.18270200  -0.34781100
H    0.49194600  -0.96329100   0.37842800
H    0.55240700   0.88541100   0.71764100
H    3.44261600   1.51827200   0.86909900
H    2.66017100   2.08686300  -0.59863700
H    4.33859300   0.83780600  -1.99478200
H    5.35429400   1.41801500  -0.66501600
H    5.27326700  -1.27730700  -1.13664600
H    5.14020400  -0.72329600   0.54026000
H    2.83823800  -1.47580700  -1.35761400
H    3.02351300  -2.05923700   0.29033900