20

C    1.44343100   2.69044500   0.35283700
N    2.57922800   1.85624700   0.60193100
C    3.38944100   1.23174000  -0.39787500
C    4.89452800   1.31697300  -0.07032200
C    5.71245700   0.61388600  -1.14892200
C    5.29662000   2.77388400   0.10909200
O    4.46112100   3.32841600   1.09991300
H    1.33974700   3.42763000   1.15921300
H    0.53142900   2.06333600   0.34006500
H    1.54260900   3.18472400  -0.62137100
H    2.80931400   1.64899100   1.57647800
H    3.15246600   1.67953100  -1.37448300
H    3.10062300   0.16145200  -0.43864700
H    5.05653100   0.80338600   0.89379900
H    5.57280100   1.08623000  -2.13337000
H    5.43521600  -0.44604600  -1.23421800
H    6.78242200   0.65600500  -0.90321200
H    5.20154900   3.31534600  -0.85087600
H    6.35625000   2.81575200   0.41598600
H    4.60587700   4.27827800   1.17274500