14

O    0.58289200   0.27531200   0.45426600
C    1.88157100   0.25532900   0.03176000
C    2.23586100   1.41580700  -0.86551600
O    1.56428500   2.21563800  -1.42121100
N    3.69324300   1.59434400  -1.09251200
C    4.69147600   2.35434600  -0.38279100
C    4.40972000   2.60006300  -1.83178500
H   -0.01768900  -0.03311500  -0.23365200
H    2.19170200  -0.65077900  -0.53359700
H    2.55207200   0.30748800   0.90755000
H    5.59741800   1.78994600  -0.12385300
H    4.30990600   3.02120700   0.39991800
H    3.80921900   3.45454700  -2.16280400
H    5.12269900   2.20117000  -2.56385100