15

C    0.63044800   0.14573000  -0.01479500
C    2.08557400   0.00339500   0.19805400
C    3.01204700   0.96442600  -0.04756700
C    4.38694700   0.69754300   0.20181600
N    5.31340200   1.57689000  -0.01438500
N    6.57658100   1.47379800   0.16365200
C    7.53577900   2.27835600  -0.02058200
H    0.28102400  -0.63673300  -0.70879400
H    0.34985300   1.13187900  -0.40455500
H    0.09949700  -0.03891600   0.93391900
H    2.43019700  -0.96389800   0.58694600
H    2.73124000   1.94719400  -0.43506800
H    4.69719300  -0.28391800   0.59198300
H    8.54445400   1.92884300   0.21846200
H    7.36392300   3.29266600  -0.40618500