12

O    1.01695100  -0.14389200  -0.24760500
C    2.34268200  -0.01013100   0.04752400
C    2.79756300   1.35175400   0.00316100
C    3.21791400   2.51564800   0.00052500
C    3.73383000   3.85492500  -0.07004400
O    2.87448600   4.89191800  -0.27144200
H    0.74888500  -1.06957100  -0.18531000
H    3.03014800  -0.58200500  -0.62868500
H    2.63434500  -0.38455300   1.06382400
H    4.52784100   3.78130400  -0.87062300
H    4.35012500   4.05231000   0.83364900
H    2.15796700   4.67268500  -0.88104200