16

C    4.20545000  -0.98350300  -0.22936000
O    3.28190800   0.01520700  -0.69549900
C    3.47411700   1.27320100  -0.53684000
C    4.57297100   1.87325700   0.08325100
C    4.67219400   3.29197500   0.19944200
C    4.96796800   3.86196400   1.65380200
N    5.94242100   3.85789200   0.63520800
H    3.76478200  -1.94392900  -0.51039200
H    4.30430200  -0.91550700   0.86271400
H    5.17589200  -0.84995500  -0.72660900
H    2.66590700   1.87997500  -0.96232300
H    5.37857700   1.27192200   0.51532100
H    3.98525800   3.90896100  -0.39049300
H    5.07320700   3.11737000   2.44792300
H    4.42111400   4.77541900   1.91420800
H    6.08485500   4.78083900   0.22216600