13

C    1.00583100   1.07440400  -0.38969400
O   -0.08321200   1.39572800   0.54326300
N   -1.22581600   0.81553800   0.38425300
C   -1.36003000  -0.41098300  -0.06062900
N   -0.43850000  -1.39505700  -0.09429600
C    0.92050900  -1.33261600   0.15007800
C    1.63469900  -0.18928500   0.06710100
H    1.67600000   1.93780800  -0.33517700
H    0.56175800   1.00769900  -1.39648200
H   -2.38929100  -0.69897200  -0.29039600
H   -0.82784100  -2.33081800  -0.21361600
H    1.38184800  -2.28920800   0.40263200
H    2.68805500  -0.20374700   0.35332400