14

C    1.09886000  -0.02691100  -0.12731700
C    2.56024000   0.08307900  -0.07645700
N    3.19214800   1.10753700  -0.68675100
O    4.47477500   1.01350500  -0.46442200
C    4.80803100  -0.12601100   0.31165100
C    4.55700300  -1.38750500  -0.43604400
C    3.50831600  -0.79300200   0.58037700
H    0.81526600  -0.99013300  -0.58461700
H    0.65584200   0.80426400  -0.68747200
H    0.70003500  -0.04741400   0.90131500
H    5.64302400   0.04031400   0.99715800
H    5.05702300  -2.29458100  -0.08938600
H    4.33712000  -1.33302900  -1.50615200
H    3.25376900  -1.39134100   1.45723600