19

C    1.05929100   0.08546400  -0.32638000
C    2.50996200   0.27587200  -0.75113600
C    3.45228600   0.35207000   0.47903700
C    4.85786800   0.50403000   0.02909100
O    5.29457700   1.64208900  -0.40185300
C    6.19502700  -0.30907800   1.36775200
C    5.81994800  -0.61540800  -0.03969700
H    0.41115500   0.03736000  -1.21166900
H    0.71096700   0.91850900   0.30174200
H    0.92608300  -0.84893200   0.23820600
H    2.61333600   1.19626500  -1.34848800
H    2.82967300  -0.55588000  -1.39894600
H    3.35001900  -0.56232100   1.07943100
H    3.16599500   1.20625500   1.11668700
H    4.67162400   2.37325100  -0.25434300
H    5.69267800  -0.79803000   2.20602600
H    6.97282200   0.42974800   1.57595200
H    6.62153700  -0.43514100  -0.76666500
H    5.33057600  -1.58879500  -0.16738900