15

C    3.05252200  -1.17279300  -0.62799500
N    3.36426300  -0.27865900   0.48402300
C    3.30665800   1.00382100   0.51531500
C    2.89257600   1.86607100  -0.62414900
C    2.91651200   3.33994100  -0.33771700
C    3.30573400   3.84169400   0.89748000
N    3.64673200   4.17466800   1.96572400
H    2.25654400  -1.86109100  -0.31337000
H    3.95178800  -1.75255600  -0.87655900
H    2.72491700  -0.60439700  -1.50347400
H    3.66717300  -0.74285400   1.34350000
H    3.58986800   1.47424500   1.46773100
H    1.87678100   1.56378100  -0.94832800
H    3.54074400   1.64263700  -1.49485000
H    2.61782000   4.02885700  -1.13076900