18

C    1.00617100   0.05173900  -0.10788800
C    2.46490500  -0.13444300  -0.02298300
C    3.33192900  -0.58606300  -1.13189700
C    3.58300700   0.88162500  -1.18071800
C    2.83077300   1.75093000  -2.11978700
C    4.73153600   1.46314100  -0.43956800
H    0.68309100   0.98623200   0.37740800
H    0.55025600  -0.76240300   0.48885700
H    0.60881500  -0.01197500  -1.12779200
H    2.92533400  -0.03752400   0.96639100
H    2.79396600  -0.98785700  -1.99829100
H    4.20111900  -1.17838000  -0.82025000
H    1.96135400   1.26216900  -2.57403300
H    3.52681900   2.02063300  -2.93588300
H    2.53095600   2.69881100  -1.64729300
H    5.13792400   0.79454400   0.32989100
H    4.48578600   2.44227900  -0.00227500
H    5.53471100   1.64393600  -1.17900500