16

O    0.98019200   0.19433900  -0.11381500
C    2.30038600   0.04015700  -0.53194300
C    3.06371100   1.10055700   0.26363700
O    2.70121400   1.11978600   1.57796900
C    4.60877500   1.05153500   0.18196100
C    5.27212000  -0.34176400   0.32786800
N    5.21159400   0.38233500  -0.88201000
H    0.41708200  -0.49983000  -0.47005000
H    2.44027600   0.20421600  -1.61688000
H    2.68130700  -0.97290300  -0.29293200
H    2.87875100   2.09120200  -0.22096900
H    1.77379200   0.82835500   1.61986300
H    5.09272200   1.96283600   0.55139800
H    4.53800100  -1.14264900   0.48534900
H    6.26202400  -0.50403500   0.76702000
H    6.00975100   0.70783100  -1.43525500