16

C    1.66883400  -0.31375900   0.46493800
N    0.81970900  -1.45232200   0.22415900
C   -0.09948200  -0.75743700  -0.66553600
C   -1.34935600  -0.52715800   0.15726000
C   -1.34739900   0.71119700   0.68312100
C   -0.15968700   1.52856200   0.27739300
C    0.75127800   0.53453500  -0.45343100
H    2.68587700  -0.49835900   0.07034100
H    1.76141700  -0.03871500   1.52967700
H    0.73776400  -2.35273600   0.70737200
H   -0.23449800  -1.22293400  -1.65301200
H   -2.11450500  -1.29344600   0.29037900
H   -2.15950500   1.11121600   1.29494700
H    0.33136300   2.02113400   1.13313700
H   -0.48169900   2.34420900  -0.39205700
H    1.25438800   0.94192100  -1.33667900