15

O    0.69323800   0.59127700  -0.35045000
C    1.94401000   0.29990400  -0.28134300
C    2.69841600   0.64432600   0.97401600
O    3.96854400   0.11009000   0.99337000
C    4.02952300  -1.21191200   1.27791400
C    2.58975000  -0.23387600  -1.43593900
C    1.89676800  -0.53584400  -2.55859400
H    0.30863600   0.93076300   0.47518100
H    2.09485800   0.34966500   1.85926100
H    2.78832900   1.74722200   0.99332400
H    5.03491200  -1.62901900   1.23178500
H    3.24894500  -1.64258100   1.91522200
H    3.66685500  -0.38950500  -1.36447200
H    0.81418500  -0.39606400  -2.62663800
H    2.41051700  -0.93824300  -3.43508400