14

C    2.26802100   1.87535000  -0.73832100
C    3.15109000   2.86561000  -1.22244200
O    4.38537900   2.96516100  -0.93822100
C    5.11664600   2.06274100  -0.05146600
C    6.55576100   2.55144900  -0.00349000
C    7.32454900   1.67247600   0.87637000
N    7.88805700   0.95115800   1.57897700
H    1.22430400   1.90295600  -1.06229200
H    2.58379000   1.08313100  -0.05371500
H    2.80070900   3.64728200  -1.90865100
H    5.04038700   1.04813300  -0.47015700
H    4.63518000   2.10323000   0.93703600
H    6.60032700   3.58267600   0.37844500
H    7.00004600   2.54200500  -1.01037400