12

N    1.70569400  -0.67558000   0.99873100
C    2.60051600  -0.44543500   0.06964500
O    3.02566600  -1.04543300  -0.85802700
C    3.26355900   1.22690000   0.23706900
O    2.86261400   1.68250500   1.43300100
C    4.66238600   1.16728000  -0.03299900
C    5.85327400   1.11408600  -0.25476000
H    1.50041300   0.03454200   1.69707100
H    1.19399000  -1.55632500   0.99591200
H    2.63579200   1.63046500  -0.57731200
H    3.59292900   1.70681000   2.07252200
H    6.91267200   1.07797200  -0.46065400