17

C    1.49126400  -0.08129600  -0.15159400
N    2.17063800   0.82597000  -1.04741300
C    2.90775300   1.91810200  -0.64086800
C    4.51833300   1.59541700  -0.35310600
O    5.11859100   2.49186400   0.15792300
N    4.94203100   0.39513000  -0.72586500
C    6.33095200  -0.03716000  -0.58636800
H    1.70300300  -1.12597800  -0.42340500
H    0.40109000   0.07275300  -0.22760500
H    1.80763600   0.10689300   0.88155600
H    2.06160600   0.66450100  -2.04878900
H    2.58245700   2.31050700   0.33200100
H    2.95908600   2.70629000  -1.40423200
H    4.28359200  -0.22357200  -1.18417500
H    6.83873200   0.61893400   0.12932000
H    6.85098300   0.01203600  -1.55301500
H    6.35255800  -1.06662600  -0.20789300