17

C    1.03746700  -0.18283800   0.03365700
C    2.53673900  -0.25408700  -0.09733600
C    3.20254500  -0.53289500  -1.38208700
C    3.25605400   0.89844600  -0.84267900
C    4.48963500   1.44197400  -0.29693900
N    4.68662900   2.73839100  -0.22504400
N    5.51834200   0.63874600   0.05857900
H    0.73989800   0.46907100   0.86635500
H    0.64110100  -1.18943900   0.23064200
H    0.56957500   0.18757800  -0.88982800
H    3.05467600  -0.60477800   0.80310700
H    2.58619100  -0.65315000  -2.27639300
H    4.13570300  -1.10137900  -1.40009000
H    2.61792900   1.63921800  -1.33170800
H    3.96342200   3.39365700  -0.50625400
H    5.56792900   3.11453800   0.11727300
H    5.29170700  -0.11709800   0.71706900