18

C    1.62992700  -0.29290700  -0.71663300
N    2.39532700   0.91997900  -0.75190000
C    3.13329400   1.45390200   0.34689200
C    4.56100200   0.95920400   0.14848000
C    5.57529200   1.70698500  -0.68183700
C    5.71807600   1.78348500   0.79820600
O    6.67386200   1.14237600   1.50354800
H    2.20087600  -1.12773200  -1.16277000
H    0.71797600  -0.16238400  -1.32037600
H    1.36494300  -0.54218500   0.31770000
H    2.59625000   1.31507200  -1.67253100
H    2.70383300   1.10071000   1.29344300
H    3.10304700   2.55475000   0.31950200
H    4.68404400  -0.12612600   0.21763700
H    5.26305100   2.62564300  -1.18863500
H    6.29303600   1.10705800  -1.24906500
H    5.39158800   2.70107500   1.29851500
H    7.24513000   0.61190800   0.93670600