12

C    0.82942000   0.18789000   0.27593400
C    2.16835600   0.17951500  -0.03748200
C    2.95357400  -1.05853000  -0.17228700
C    3.58155700  -1.18631000  -1.62015300
O    3.87560100  -0.25843200  -2.28591000
C    2.84751100   1.40139600  -0.30206400
N    3.43886500   2.37360700  -0.54469000
H    0.29156400   1.12892100   0.42228900
H    0.28170100  -0.74917900   0.41162800
H    2.38318300  -1.96768000   0.05734700
H    3.87691900  -1.04614800   0.43948300
H    3.75579900  -2.24410800  -1.93242300