18

N    1.74128600   0.20037000   0.22869900
C    2.79690400  -0.03642100  -0.59645900
C    2.23006900  -1.11647300  -1.95492700
O    1.41383800  -0.45646600  -2.76971500
C    3.40382400   1.14293600  -1.27648700
C    4.60931500   1.80081800  -0.63147100
C    4.76755200   1.03011800  -1.90123000
H    1.19284200   1.05229400   0.14448800
H    1.46327800  -0.45991500   0.94862000
H    3.51096000  -0.75708800  -0.16682200
H    1.80977400  -1.98437900  -1.42683800
H    3.20891600  -1.29193900  -2.41861400
H    0.48266100  -0.59554100  -2.55266700
H    2.68022200   1.79662500  -1.77329500
H    5.00304400   1.36232000   0.28893600
H    4.64565100   2.89172600  -0.66245900
H    4.93714000   1.57219400  -2.83315700
H    5.28251200   0.06600800  -1.84112500