10

O    2.52497600  -0.74799500   1.21970900
C    2.29942000  -0.12340300   0.11726400
O    1.54437800  -0.44757500  -0.74556600
C    3.06791000   1.27173300  -0.16414800
C    4.45918700   1.06996600   0.02848500
C    5.65484000   0.85758800   0.18369500
H    3.19223400  -0.33146900   1.79020300
H    2.59825600   1.93087500   0.59223500
H    2.80477300   1.61200700  -1.17498000
H    6.71679300   0.69480200   0.31273200