18

C    1.88275500   2.06714000  -2.07430800
O    3.18322900   1.96497800  -1.51798300
C    3.24012100   1.46851300  -0.22779100
C    4.67987300   1.43626600   0.17581300
N    5.63289900   1.54647600  -0.83076600
C    5.76132400   2.69934900  -0.04194500
C    6.77888000   2.82150300   1.04419400
H    1.99723900   2.47611000  -3.08398300
H    1.25240300   2.74551200  -1.47631100
H    1.40254900   1.07668000  -2.13473100
H    2.82517500   0.44145000  -0.14256800
H    2.68840400   2.09116800   0.50809400
H    4.96236400   0.96492800   1.12348100
H    5.20710200   1.67605700  -1.76065500
H    5.41117200   3.62409200  -0.51725400
H    7.09278300   1.84909500   1.44393100
H    6.40406400   3.46332600   1.85274300
H    7.65804600   3.32175100   0.60424100