16

C    0.93896700  -0.03456400  -0.02921900
C    2.43441100  -0.02053700   0.05434100
C    3.19547300  -1.17597600   0.19371700
C    3.11990400   1.19013800  -0.00175500
C    3.71394900   2.27097900  -0.01665500
C    4.44003600   3.51626900  -0.10351800
N    3.64375500   4.69117700  -0.17832300
H    0.50933200   0.56606200   0.78742300
H    0.54583400  -1.05631900   0.03192200
H    0.60746600   0.42208200  -0.97451600
H    2.71186100  -2.15537700   0.24808800
H    4.28580000  -1.13244400   0.25294700
H    5.14204600   3.34326300  -0.96268000
H    5.12149800   3.55278500   0.76912600
H    3.04559600   4.74933200  -0.99683400
H    4.18309500   5.54418100  -0.07085500