15

C    2.25607000  -0.67326000   0.30509000
O    3.55422600  -0.07729300   0.06990600
N    3.58241100   1.21517200  -0.01472800
C    4.76236300   1.86893800  -0.39097900
N    5.77944800   1.23035300  -0.84257200
C    4.72484100   3.33647800  -0.27583500
C    4.01854900   4.00862400   0.63712900
H    2.45776100  -1.74602000   0.37552500
H    1.59953500  -0.45625800  -0.54913900
H    1.84893800  -0.29470000   1.25338200
H    2.70997900   1.73600300   0.14306500
H    5.67037700   0.21118700  -0.85088800
H    5.38397800   3.84774200  -0.98162900
H    3.41049300   3.52293900   1.40837900
H    4.05254000   5.09949500   0.67179500