19

C    2.76576700  -0.92854200  -0.64430900
C    2.22433800   0.20801500   0.20140600
N    2.93960100   1.44285000  -0.01461400
C    3.12507900   2.35860500  -1.09515700
C    2.79284900   2.76732700   0.32162200
C    3.95654900   3.43859700   1.21437200
N    4.07591000   4.81340300   1.06066200
H    2.17355300  -1.83359200  -0.45609800
H    3.81262500  -1.14662800  -0.39302800
H    2.69722600  -0.69776100  -1.71698300
H    2.27877800  -0.00727300   1.27980800
H    1.15779300   0.40922200  -0.02688700
H    2.35489100   2.35511000  -1.87583200
H    4.15401500   2.51354400  -1.44388200
H    1.79463500   3.12154800   0.61175000
H    4.88929800   2.92597100   0.94277800
H    3.68212900   3.16768900   2.24587900
H    4.62422700   5.19609000   0.30049100
H    3.37875500   5.43466200   1.45274300