13

C    1.06004600  -0.05964700   0.08657800
C    2.51398500   0.05700200  -0.01824000
N    3.29152800  -1.03901800  -0.11382000
N    4.52550300  -0.65793100  -0.18991700
C    4.73189800   0.78800300  -0.15393900
O    5.79649000   1.29505000  -0.21319100
C    3.31954800   1.30859300  -0.03270600
H    0.73896000  -1.10670100   0.04884600
H    0.57971900   0.52064100  -0.72084700
H    0.72007900   0.40866800   1.02798900
H    5.27365900  -1.35652900  -0.26899100
H    3.05974200   1.97173700  -0.87669300
H    3.18791700   1.90982100   0.88425100