18

C    3.60744800  -0.51692200   1.51631000
C    2.80601400  -0.49656400   0.25458400
O    1.49965200  -0.67125500   0.32196500
C    2.98141500   1.31532900  -0.49243500
O    2.57776800   2.10515900   0.46069500
C    4.44616800   1.54604200  -0.88244800
N    5.05133400   2.32680100   0.17968100
H    4.66352400  -0.28646900   1.33156700
H    3.56274800  -1.53852100   1.92988800
H    3.20518700   0.17904000   2.26696600
H    3.22036800  -1.00369400  -0.62749900
H    1.13293000  -0.40004000   1.17762500
H    2.23527800   1.10451000  -1.26907100
H    3.45078100   2.48428800   0.81867000
H    4.42767200   2.10579700  -1.83187400
H    4.96742200   0.60109400  -1.09618000
H    5.44381300   3.20807400  -0.14406100
H    5.77769300   1.83404700   0.69297500