16

C    3.94901500  -0.45411800   0.91718400
N    3.97728700   0.46808600  -0.19350600
C    3.30907700   1.69144900  -0.22865500
C    2.01498500   1.76678500   0.56709500
C    4.29328400   2.92695500   0.30377600
O    5.57627000   2.69529600   0.35487500
O    3.76283700   3.94589300   0.56943700
H    4.77656700  -1.16762600   0.82888500
H    2.99650500  -1.01420100   0.91634100
H    4.01793900   0.09104400   1.87021300
H    4.43469500   0.15114700  -1.05016900
H    3.17091000   1.99561300  -1.28034800
H    2.16844300   1.61303200   1.64369300
H    1.30679300   1.01728300   0.18780100
H    1.58907700   2.76920700   0.43025500
H    5.81354400   1.79084600   0.11179100