11

N    0.91763000   0.11258800  -0.00919600
C    2.07263900   0.03040900  -0.00484700
C    3.48914600  -0.05101000   0.00057700
C    4.36637600   1.10531400   0.00421400
N    5.62565000   0.65686100   0.00894200
C    5.62824000  -0.71739100   0.00863300
C    4.29381400  -1.17702300   0.00340700
H    4.10847300   2.16571400   0.00346800
H    6.45787900   1.24431000   0.01227100
H    6.56030600  -1.28354200   0.01207900
H    3.97725100  -2.21802000   0.00195200