14

C    1.01489100  -0.23898300  -0.41125500
C    2.23032300   0.18766500   0.39930800
C    2.73411600   1.53518400   0.15530700
C    3.83990100   2.28216400   0.71405400
N    3.87613600   3.48556400   0.14918100
C    2.87498700   3.50007100  -0.69867700
O    2.16337600   2.34375000  -0.72418300
H    0.73935700  -1.26376900  -0.13474700
H    1.22583600  -0.22141000  -1.48912400
H    0.15235300   0.41159000  -0.21282600
H    3.09545500  -0.49347200   0.25468000
H    2.05364800   0.12040400   1.49366100
H    4.54755000   1.94572900   1.47454700
H    2.55437000   4.30286700  -1.36504700