14

C    2.61861200   0.12619400  -1.51295400
O    3.72558400   0.82137200  -0.91337400
C    3.59659600   1.74824600  -0.02355400
C    2.33629200   2.18691600   0.46366800
C    4.80434900   2.35209600   0.48412000
C    6.03610100   1.98137300   0.06222400
H    3.06782600  -0.58444300  -2.21224500
H    1.98101900   0.83578800  -2.05764500
H    2.05287300  -0.41385100  -0.74157700
H    1.39167600   1.76643500   0.11417800
H    2.30393200   2.97566500   1.21739100
H    4.68432200   3.13483200   1.23618700
H    6.17141500   1.19962100  -0.68987200
H    6.93013200   2.46017800   0.46828400