17

N    0.82620300   0.34780600  -0.20686000
C    2.15462800   0.26471500  -0.22031300
C    3.01685000   0.98146900   0.77577700
C    4.10939300  -0.06803900   0.99177300
O    5.01450900  -0.12582700  -0.07373300
C    3.28003200  -1.32956300   0.90320700
N    3.77809200  -2.38555800   0.27698700
H    0.26542700  -0.02447700  -0.96505300
H    0.32558400   0.73850900   0.58411000
H    2.61346700  -0.02509400  -1.17013700
H    2.46681000   1.16535800   1.71219900
H    3.39795100   1.94840600   0.40865400
H    4.62611000   0.01954700   1.96575600
H    5.71773800   0.52062500   0.04362600
H    2.48948200  -1.49774400   1.63977400
H    4.60446000  -2.25243600  -0.30257600
H    3.32219300  -3.29007600   0.28874700