15

C    0.94751200  -0.11851200   0.27011800
C    2.40656800   0.15011000  -0.10284300
C    3.24781700   1.17552700   0.69456200
C    4.17343300  -0.00877800   1.09993200
N    3.35140900  -0.87297800   0.27106600
C    5.58861300  -0.00449900   0.74096800
N    6.70192000   0.00862800   0.43727400
H    0.54948700  -0.98456900  -0.27558300
H    0.36457500   0.76789600  -0.01487800
H    0.84458000  -0.28101800   1.35161500
H    2.47049100   0.27957500  -1.20615600
H    2.73316300   1.65027800   1.53807500
H    3.74541300   1.93486500   0.08039600
H    4.06551800  -0.30877700   2.16358200
H    3.46539400  -1.85624800  -0.01012200