15

N    1.49192100  -2.54912900   0.95030300
N    2.07204900  -1.38701600   0.88818100
C    2.11671900  -0.46596600   0.01909100
C    2.90245400   0.78590600   0.21402500
O    2.37394100   1.70857400  -0.67089000
C    2.96212100   2.94071900  -0.72103700
C    4.00435500   3.35506100  -0.00433900
H    2.09387600  -3.37482000   0.87893300
H    0.65490900  -2.62145900   1.53663400
H    1.57083200  -0.58606200  -0.93327400
H    3.96726000   0.54700300  -0.00468700
H    2.85768900   1.11408800   1.27086100
H    2.44778100   3.56557700  -1.45264300
H    4.52838800   2.74522100   0.73405300
H    4.36884200   4.37111200  -0.15475400