16

C    0.94188200   0.03773300   0.05438300
C    2.38119400   0.02576100   0.06755500
C    3.61557700   0.00180300   0.07673700
C    4.99441600  -0.03843600   0.09436400
C    5.76393200   0.98524600  -0.44857700
C    7.23868000   1.02506900  -0.39787200
N    7.79259300   1.86639500  -1.40383600
H    0.54672200   1.01915900  -0.24201600
H    0.55114100  -0.24975100   1.04340200
H    0.59016300  -0.72168300  -0.66646700
H    5.48267300  -0.89952900   0.56792800
H    5.26550100   1.83347200  -0.93363900
H    7.63429700  -0.01543300  -0.34220900
H    7.47053100   1.44155600   0.60857100
H    7.76376900   1.46896100  -2.33782100
H    8.73007000   2.19392400  -1.19743200