11

O    1.19844200   1.60183900   1.25701000
C    1.79252000   0.80354300   0.65912100
C    3.16074400   0.91685500  -0.01015400
O    3.41596900  -0.25290200  -0.79927900
C    3.18485300  -1.40759000  -0.32531700
C    3.36906500  -2.53732600  -1.11677600
C    3.50710900  -3.55591400  -1.76491400
H    3.93391900   1.01998200   0.76708200
H    3.20183200   1.76703000  -0.70416700
H    2.85414400  -1.51514100   0.72058400
H    3.63268200  -4.45788400  -2.34889900