19

C    0.93776100   0.11032600  -0.04267600
C    2.45639200   0.05000600  -0.00655200
C    3.13183500   1.10572000   0.90290500
N    4.45650000   0.56430100   1.10905900
C    4.39840000  -0.77588200   1.42064400
C    3.00892100  -1.30486400   0.49390800
N    3.32538800  -2.20972300  -0.48521500
H    0.52689000  -0.66497500  -0.70398300
H    0.59930000   1.08409200  -0.42491100
H    0.50918200  -0.02689500   0.96193300
H    2.85043300   0.20152000  -1.02724000
H    2.60589600   1.17462000   1.87025900
H    3.17065600   2.10759600   0.45912700
H    5.20657000   0.89646400   0.50722800
H    5.31250800  -1.34249900   1.21190700
H    4.02174000  -0.97277500   2.43626500
H    2.37385400  -1.77603000   1.25635300
H    3.72346300  -1.91091700  -1.36977700
H    3.30974900  -3.20869300  -0.30995500