20

C    1.72933700   1.17795100  -1.56779200
O    2.95423100   1.65984700  -1.03749000
C    3.43851000   1.04516000   0.05304500
C    4.88061500   1.32482100   0.35275700
C    5.29611600   2.80529600   0.24311100
C    4.23156500   3.79885600   0.70057500
N    3.51416400   3.28996100   1.91762300
H    1.49022100   1.79628800  -2.43959600
H    0.92107100   1.26065200  -0.82359900
H    1.83317300   0.12797900  -1.88202100
H    3.02548200   0.05476600   0.29117100
H    3.10142400   2.36209600   1.64409500
H    5.52939400   0.73769500  -0.32347400
H    5.09912500   0.93136000   1.35985600
H    5.51910800   3.05917700  -0.80265500
H    6.23189600   2.95964200   0.80147600
H    3.45431100   3.91328700  -0.06487900
H    4.65088800   4.78466400   0.93844300
H    4.14365300   3.14273400   2.71490500
H    2.75853900   3.91339000   2.22093600