13

C    0.81241700  -0.10295300  -0.46662800
C    2.15347700   0.09605000  -0.10685700
C    2.93348200  -1.00330100   0.26679700
C    3.61975200  -1.96527900   0.57710700
C    2.74494700   1.43430900  -0.12860100
C    3.43487100   1.95311800   1.11415100
O    4.13104800   1.51027600   0.00111700
H    0.19386800   0.73971600  -0.79017800
H    0.36466700  -1.09936400  -0.42929900
H    4.22879600  -2.81555500   0.85095500
H    2.25547600   2.17532600  -0.77357300
H    3.48338600   1.31930000   2.00788600
H    3.38066000   3.03689500   1.27126400