11

C    2.43613000  -0.20065400   0.64276700
N    2.02323400   0.25445300  -0.73783600
C    2.60490600   1.45045700  -0.59611600
C    3.04828500   2.75378500  -0.87199900
O    3.69310300   3.14955300   0.19745500
N    3.72565800   2.15603300   1.24563200
C    3.07383500   1.19064000   0.71937000
H    3.12984800  -1.05218100   0.62547800
H    1.58198200  -0.38024500   1.30972300
H    1.49732800  -0.19155700  -1.49017800
H    2.98021100   3.45008200  -1.70860700