17

C    3.27727200  -1.01719000   1.15838700
C    2.68398400  -0.23892400  -0.00936700
C    2.98321400   1.27348600   0.04847500
C    4.42978200   1.54721400  -0.08390300
N    5.08545800   2.20767800   0.79061500
N    6.33477100   2.53045800   0.82150700
C    6.99764700   3.19109800   1.67203800
H    2.99147400  -2.07613200   1.10065900
H    2.91883500  -0.62845400   2.12374100
H    4.37928100  -0.97940600   1.16530400
H    1.58966600  -0.34464400  -0.02277400
H    3.04122100  -0.64583800  -0.96953100
H    2.59609700   1.73087200   0.97013100
H    2.49959500   1.77228500  -0.81123600
H    4.98139300   1.16506900  -0.95923800
H    8.06513600   3.33725400   1.47764900
H    6.52488500   3.60594500   2.57348000