17

C    0.68088300  -0.66999700   0.08025600
N    1.77242000  -0.35712400  -0.80240700
C    2.84776400  -1.29524000  -0.97938700
C    1.82952900   0.93693400  -1.46698400
C    2.08799700   2.02839700  -0.45222700
C    1.21103300   2.99330100  -0.17932600
H   -0.03704100   0.15636000   0.11295600
H    1.07348700  -0.86345600   1.09325800
H    0.19375000  -1.59633200  -0.27012500
H    2.68480300  -2.19542000  -0.37684200
H    3.79838500  -0.81248700  -0.69336500
H    2.92250500  -1.55950000  -2.04855100
H    0.86051300   1.09630800  -1.96862600
H    2.62116300   0.89394100  -2.22804800
H    3.06522400   2.00213000   0.04115200
H    0.23407400   3.05047800  -0.66938300
H    1.45448000   3.78386400   0.53421300