16

C    2.69996000   0.09572100   1.89988400
C    3.65205600   0.63043700   0.82866600
C    2.92101500   0.87909100  -0.48331100
N    2.00150000   1.88998400  -0.50336000
C    4.20798000   1.25517300  -1.65256300
O    4.05479300   2.36458300  -2.28682200
O    5.05751700   0.44775000  -1.72742200
H    3.27471300  -0.13433200   2.80714700
H    2.20675400  -0.83063900   1.57219500
H    1.92461400   0.82608900   2.17187100
H    4.45475000  -0.09214900   0.62602600
H    4.13996700   1.56041200   1.16677400
H    2.55030200  -0.02898600  -0.98573500
H    2.00852200   2.60287200   0.22552900
H    1.14563400   1.81580400  -1.05023600
H    3.25012500   2.83128500  -2.00218300