12

C    1.01504400  -0.23328700   0.06647600
C    2.27650500   0.21734600  -0.05784300
C    3.48788800  -0.64745600  -0.39613100
C    4.65031500   0.16999300  -0.70751700
N    5.59434700   0.80622400  -0.96863000
C    2.53112600   1.63556000   0.15591400
O    3.61052600   2.18103800   0.00909600
H    0.18879900   0.42877200   0.33959500
H    0.77092800  -1.28560000  -0.10651900
H    3.26274100  -1.28806800  -1.26412000
H    3.73773500  -1.30251700   0.45502500
H    1.69782400   2.30244300   0.47477400