20

C    0.80063100   0.38808400  -0.75687400
C    2.20082500   0.72083500  -1.14234100
C    3.11658300   1.26006200  -0.32783500
C    4.53993600   1.53167300  -0.75193200
N    4.74788800   2.97250400  -0.80380800
C    5.46169000   3.62274500   0.26215100
C    4.16036600   3.75522200  -1.85814500
H    0.08992600   0.90095500  -1.42375800
H    0.57679500   0.66534200   0.28174300
H    0.62115400  -0.69119900  -0.88074000
H    2.49302200   0.47227100  -2.17157800
H    2.86441800   1.51341900   0.70784100
H    4.73418000   1.12602600  -1.75744300
H    5.27014600   1.10808000  -0.04832400
H    4.97989500   3.37539600   1.22383600
H    5.47656200   4.70855500   0.11806800
H    6.49166400   3.22822500   0.29875600
H    3.62645200   3.10971600  -2.56351600
H    4.96090600   4.31300400  -2.37393900
H    3.46334600   4.49304900  -1.42669800