16

C    4.08259800   5.45251000   0.73069500
C    4.49600800   4.04274600   0.56403100
N    5.54046200   3.56818600   1.10799800
O    5.97958900   2.38433600   1.21324700
C    7.25933100   2.06462800   0.47181900
C    7.22999700   2.57602600  -0.92285900
C    6.93295700   1.78790700  -1.95969400
H    4.01422300   5.92469200  -0.26145300
H    4.77228200   6.01384400   1.37123400
H    3.06935600   5.47090300   1.16227400
H    3.90901200   3.34903700  -0.06033100
H    7.27059000   0.97213600   0.55526700
H    8.04844900   2.49949000   1.10123300
H    7.50500800   3.62309500  -1.08318900
H    6.68636800   0.72915300  -1.83082600
H    6.95036500   2.17058200  -2.98303600