16

C    1.32213400  -0.59096500   0.15733900
C    2.75800900  -0.14221400  -0.07717600
C    2.79804700   1.39116700  -0.39653500
N    4.13457700   1.81859400  -0.63346100
C    5.05070300   2.24713300   0.37513900
H    1.31511200  -1.66593600   0.38535900
H    0.69565200  -0.43266300  -0.73207000
H    0.86424700  -0.06395500   1.00660600
H    3.20795200  -0.68965700  -0.91934000
H    3.37950000  -0.32581100   0.81274900
H    2.39109800   1.95037400   0.45912900
H    2.19903300   1.58506400  -1.29870400
H    4.50313700   1.71933500  -1.58489200
H    4.56139700   2.27240300   1.35519000
H    5.43353500   3.25035900   0.11194300
H    5.92450900   1.57063700   0.39074400