10

C    0.94024200   0.01966800   0.03928000
C    2.14516600  -0.00357200  -0.00740200
C    3.58139800  -0.01532700  -0.00904000
O    4.13820600  -1.09900500  -0.78127600
C    4.84894200  -0.58641000  -1.71547100
N    4.88291300   0.75391800  -1.71251200
O    4.14215200   1.13376400  -0.71453300
H   -0.13887700   0.04013900   0.07733100
H    4.04291400  -0.03886200   0.99550100
H    5.37616000  -1.21300400  -2.44117600