14

C    0.96994700   0.07125200  -0.14199000
C    2.43274200  -0.09603900   0.00059800
C    3.10926600  -1.33532900   0.07169100
N    2.52982000  -2.50900000  -0.02882800
C    3.24783900   1.14516100   0.27975900
O    4.37341000   1.33418000  -0.39131500
O    2.87480000   1.86465600   1.15641900
H    0.74454400   0.67843800  -1.03578200
H    0.60811200   0.66181000   0.71760300
H    0.40029500  -0.86411400  -0.19920600
H    4.19219900  -1.34993900   0.23790000
H    1.52585800  -2.61036100  -0.17142700
H    3.07123900  -3.36911600   0.04524300
H    4.43882800   0.81034100  -1.20021500