16

C    1.19740900   0.39070000  -0.04962300
C    2.66078800  -0.09887600  -0.04843100
C    3.04784000  -0.86009700  -1.22847200
C    3.34852700  -1.50649200  -2.20219600
N    3.55029800   1.02273100   0.14943900
C    4.17299800   1.72922800   1.21506400
C    4.90807200   1.36469500  -0.05831500
H    0.97226800   0.94157700   0.87344500
H    0.54690500  -0.49106800  -0.10535700
H    1.01039300   1.02746200  -0.92354500
H    2.79970800  -0.72223900   0.86294100
H    3.61137000  -2.08702300  -3.07113000
H    4.31540200   1.16448500   2.14435300
H    3.87352100   2.77788900   1.33699300
H    5.09727200   2.17272000  -0.77721000
H    5.60364100   0.51735400  -0.10843700