19

C    0.94749200  -0.14711000  -0.32248700
C    2.47407300  -0.19771500  -0.17401200
C    2.97787600   1.20843200   0.15085700
C    4.56314100   1.16557100   0.27206600
C    5.08173600   0.61703200   1.58614000
C    5.32188200   1.23170900  -0.98210500
O    5.05694800   2.38787800  -0.13146200
H    0.58632600  -1.16236100  -0.54556500
H    0.63843700   0.51199400  -1.14594000
H    0.46184000   0.19360000   0.60239200
H    2.92550700  -0.56434800  -1.10896300
H    2.75395200  -0.89965200   0.62484000
H    2.60301000   1.59440000   1.10946200
H    2.70946000   1.92105700  -0.64169700
H    6.18009300   0.62485400   1.58014200
H    4.72521600  -0.41536000   1.69302800
H    4.71231100   1.21977500   2.42608800
H    4.80233500   1.28209500  -1.94534300
H    6.39241700   0.99797600  -1.00986300