17

O    1.21857000  -0.06632200   0.78558800
C    2.45387200   0.07508600   0.16444000
C    2.48867300   1.22930400  -0.84322800
C    3.81007000   1.26772100  -1.60668300
C    4.31237200  -0.03395000  -2.04080700
C    3.74970300  -1.24046800  -1.56809400
C    2.70403400  -1.25215600  -0.55510200
H    1.08320700   0.63246600   1.43352700
H    3.26929500   0.21844600   0.90288800
H    2.32926100   2.18785000  -0.33029900
H    1.65041900   1.10321300  -1.54767300
H    4.64277300   1.67988200  -0.98272400
H    3.80929900   1.96996700  -2.46123900
H    5.16775500  -0.08182400  -2.72426400
H    4.09719800  -2.18839600  -1.99432300
H    1.76800000  -1.53190800  -1.10474500
H    2.82582900  -2.10666200   0.13495500