19

C    1.11778900  -0.45156800   0.47856900
C    2.61865100  -0.29302400   0.23738300
C    2.97701000   1.18714300   0.00599700
C    4.48243300   1.29580200  -0.22963400
C    4.81462300   2.87923200  -0.47061300
C    6.20419800   2.89700400  -0.67945500
C    7.43159100   2.82732600  -0.85298500
H    0.88226400  -1.51354700   0.64152100
H    0.53132100  -0.10373200  -0.38418200
H    0.79043700   0.10751100   1.36713300
H    2.92534700  -0.88775400  -0.63752600
H    3.18268700  -0.67831700   1.10147000
H    2.68355200   1.78608900   0.88186300
H    2.42547900   1.57554400  -0.86402700
H    4.79936300   0.73718900  -1.12081100
H    5.05941400   0.95073500   0.63907400
H    4.51526900   3.42206100   0.43786900
H    4.24862800   3.20490200  -1.35535900
H    8.50278700   2.79361600  -1.00795600