11

C    0.91411600   0.07483100  -0.00373800
C    2.13232000  -0.00107100  -0.00132000
C    3.52174300  -0.07395100   0.00162000
C    4.39484900   1.06674700   0.00302900
O    5.63492300   0.67601000   0.00576600
C    5.65208500  -0.69912400   0.00627800
C    4.38386500  -1.20299100   0.00373900
H   -0.16461800   0.13804600  -0.00590800
H    4.18330000   2.13747600   0.00222700
H    6.64011400  -1.15624100   0.00849200
H    4.09720600  -2.25184300   0.00344600