17

C    0.91382100  -0.07570200   0.54473600
N    2.35031100   0.08987000   0.36131000
C    2.98627800   1.23104800   0.46138400
N    2.33505600   2.33139000   0.83741600
C    4.47658000   1.32966100   0.24273100
C    4.82195500   2.29259800  -0.89692500
O    4.28192000   3.54820000  -0.57117200
H    0.39259700  -0.02635500  -0.42173500
H    0.54588000   0.72990300   1.19564700
H    0.72622600  -1.04989300   1.01070600
H    2.89663200  -0.73104600   0.11116000
H    2.63990700   3.17642000   0.31387200
H    4.89350400   0.33163300   0.04671000
H    4.92697100   1.70343200   1.17579500
H    4.42235500   1.91043200  -1.85394500
H    5.92098500   2.32689200  -0.97869000
H    4.54392000   4.21604900  -1.21421100