13

C    0.62450000   1.21909400  -0.30966600
O   -0.54314700   1.00272700  -1.02433200
C   -1.34400300   0.11063000  -0.32880600
C   -0.38909000  -0.94210600   0.24157900
N    0.73011100  -1.26703100  -0.52638500
C    1.02115400  -0.14799700   0.25529100
H    1.41286600   1.59123000  -0.98267700
H    0.50583800   1.92168700   0.53531700
H   -1.89568800   0.56938800   0.51196700
H   -2.06093700  -0.36486800  -1.01645100
H   -0.75465300  -1.67906600   0.96539600
H    1.23099500  -2.15779700  -0.45390100
H    1.83008400  -0.22360100   0.99052800