11

O    1.02918300  -0.03629600  -0.13904800
C    2.31609900   0.00173900   0.00345700
C    3.02962000   1.22928600   0.04530900
C    4.39747900   1.20891300   0.19864800
C    5.07289700  -0.03214500   0.31227300
N    4.27805500  -1.07455300   0.25564000
N    3.06304700  -1.10349800   0.12088600
H    0.66455700  -0.93542200  -0.15206600
H    2.46363500   2.15907900  -0.04651500
H    4.97606500   2.13503200   0.23472000
H    6.14688800  -0.17240800   0.43649600