17

C   -0.99055300  -0.00167200   1.18907400
C   -0.69178100  -1.00105700   0.06599600
C    0.85876700  -1.27778900  -0.08570100
C    1.60533000  -0.00100000   0.29882500
C    0.85947200   1.27744400  -0.08163700
C   -0.69111400   1.00112000   0.06920900
O   -0.96670500   0.00160600  -0.89317500
H   -0.37330000  -0.00333200   2.09347200
H   -2.05961100  -0.00174400   1.44276600
H   -1.26428400  -1.92170300  -0.12328800
H    1.08545000  -2.12790700   0.57392600
H    1.03427000  -1.59152200  -1.12431900
H    2.58232800  -0.00046600  -0.21363900
H    1.80866300  -0.00277400   1.37813900
H    1.03519200   1.59436100  -1.11925500
H    1.08674800   2.12533200   0.58065100
H   -1.26320300   1.92262300  -0.11713500