15

C    7.19140500  -0.14827300   1.10152600
N    6.07917000   0.76692500   0.96937800
N    5.13819800   0.55157200   0.11062300
C    4.15326500   1.42116500   0.03791200
O    3.18131300   1.27710700  -0.79010200
C    3.06062700   0.21320700  -1.68226500
C    1.99826500   0.20193200  -2.47726500
H    8.13112700   0.38703400   0.89863600
H    7.05432200  -0.96380900   0.38411500
H    7.22061200  -0.54195300   2.12864500
H    6.05533700   1.59561800   1.57701700
H    4.07002200   2.32579100   0.65895600
H    3.86359600  -0.52238700  -1.64284200
H    1.24552600   0.99208800  -2.43830500
H    1.87223700  -0.61582900  -3.18763700