14

O    0.85597200  -0.23247100   0.39203900
C    2.16637000  -0.15673500   0.02896500
C    3.04211100   1.00259000   0.64250000
N    3.90300900  -0.01206200   1.17963300
C    3.08346200  -1.11831200   0.82854400
C    3.86658900  -2.27412500   0.14303300
O    5.04828200  -2.34605200   0.22372800
H    0.27279900   0.10600400  -0.29650200
H    2.34779400  -0.23800900  -1.05763100
H    2.48110000   1.52173400   1.44403100
H    3.55440200   1.74632300   0.01161300
H    4.91012400  -0.01525100   1.37966700
H    2.56448000  -1.57670400   1.69796600
H    3.21636200  -3.00223800  -0.39212000