12

N    0.93733300   0.13491400   0.08453800
C    2.25828700   0.13228100   0.02990000
C    3.11548500   1.25752400   0.01786200
S    4.72242300   0.79407600  -0.05881900
C    4.35028800  -0.91183900  -0.07896500
C    3.01136800  -1.12594100  -0.02780400
O    2.29336900  -2.24076100  -0.02112600
H    0.39649600   0.99389100   0.12486500
H    0.43762700  -0.75329100   0.08742300
H    2.82100700   2.30627900   0.05195700
H    5.15429600  -1.64512300  -0.12754200
H    2.83238100  -3.04119700  -0.06107900