21

C    0.96353400  -0.05035800   0.00573700
C    2.48877700  -0.00488300   0.01974600
C    2.99327400   1.44728200  -0.01058900
C    4.55446000   1.45899100   0.00470000
C    4.94594200   2.90151200  -0.01700100
C    6.68208400   2.96399300  -0.00688900
O    7.01209000   4.24859600   0.05503000
H    0.62238800  -1.09575000   0.02852500
H    0.55300200   0.41699100  -0.90144400
H    0.53555700   0.46143500   0.88025300
H    2.89369300  -0.54964500  -0.84781300
H    2.87593400  -0.50594300   0.92102500
H    2.60734600   1.99892300   0.86059700
H    2.62366900   1.95576000  -0.91464400
H    4.92503800   0.91371700  -0.87542800
H    4.90796000   0.95038000   0.91313200
H    4.67737900   3.47745700   0.87832300
H    4.67909800   3.44233600  -0.93577600
H    6.96369100   2.43062000  -0.92671000
H    6.91882200   2.45334600   0.93541200
H    7.11899000   4.66084900  -0.81915800