16

C    1.75318300   2.84944900  -1.29297900
C    3.18998300   2.60930900  -1.69123900
O    4.03403200   3.74304400  -1.31370900
C    4.49088000   3.80384400  -0.10495100
O    4.34160600   3.03432000   0.80978400
C    5.34319300   5.06190900   0.11389800
N    5.79464900   5.02730400   1.44499300
H    1.14178400   2.01115800  -1.65573300
H    1.36442300   3.77298400  -1.74386900
H    1.64105000   2.89735300  -0.20080300
H    3.31767100   2.54716000  -2.77757600
H    3.60842800   1.70986600  -1.21974300
H    4.78233600   6.00303100  -0.08000300
H    6.20649600   5.12227300  -0.58563500
H    5.47381000   4.19355600   1.98354900
H    6.38904400   5.74933700   1.86465600