12

C    1.00800800  -0.13418800  -0.33688400
C    2.33933800  -0.33581300  -0.33395300
O    3.13108800   0.69926700   0.03001300
C    4.43020700   0.62765500   0.07213000
C    5.12378400   1.75863000   0.46124700
C    6.52812200   1.75161100   0.52884600
N    7.69013300   1.74307000   0.58392700
H    0.34133300  -0.94888000  -0.62551300
H    0.58119200   0.83176500  -0.05515100
H    2.84655100  -1.26798200  -0.60107900
H    4.91771500  -0.31709900  -0.19989600
H    4.58099300   2.67461200   0.72148300