12

C    1.02158000   1.11182800  -0.38265000
O   -0.07317600   1.36263100   0.58080000
N   -1.19721400   0.78525000   0.36116900
C   -1.34011400  -0.41642500  -0.11609500
O   -0.45168600  -1.37603400  -0.15078600
C    0.88469100  -1.31021600   0.10867500
C    1.61620700  -0.18727500   0.02187700
H    1.70104000   1.96113700  -0.26006100
H    0.57577200   1.12256200  -1.38967800
H   -2.34912300  -0.72566000  -0.40224400
H    1.27768500  -2.29574600   0.36106200
H    2.67169900  -0.24230100   0.29788100