16

C    0.79562100  -0.20216200   0.07057700
C    2.29044100  -0.10261700  -0.08576600
C    3.15400800  -0.65275600   1.02756700
O    2.77636000  -0.43090600  -1.29519900
C    2.68322900   1.67554700   0.05277500
N    3.64482100   2.02757800  -0.76540500
O    2.04487100   2.23847000   0.88028800
H    0.25874400   0.33583400  -0.72527400
H    0.47670100   0.19909500   1.04004400
H    0.52434600  -1.26875600   0.02175400
H    2.87328500  -0.22329400   1.99667600
H    4.22275400  -0.49007800   0.83490400
H    2.97745400  -1.74072800   1.05461100
H    2.08687000  -0.42204900  -1.97738800
H    4.03822100   1.34069500  -1.40333600
H    4.00855900   2.97841500  -0.74466700