15

C    1.46511100  -0.50170200  -0.71642300
N    2.41028600  -0.10988300   0.31445800
N    3.04272500   1.03300800   0.24103900
C    4.27983400   1.28948400   0.10652000
C    4.79712200   2.68989100   0.13693800
C    5.84626500   2.78857400   1.15145800
C    6.70443600   2.84173700   1.99794000
H    1.28578100  -1.57919100  -0.61756300
H    1.89156000  -0.27374100  -1.70123100
H    0.51507100   0.04183300  -0.58747800
H    2.28636300  -0.47568000   1.26441700
H    4.99490400   0.46088200  -0.02769500
H    3.97559700   3.39737500   0.32385500
H    5.21428300   2.91364800  -0.86222000
H    7.47425000   2.90833900   2.74755500