18

C    1.53179600  -0.53031900   0.39845000
N    2.70650100  -0.09809900  -0.40537300
C    3.28433600   1.23196500  -0.07661700
C    4.74267500   0.98040700   0.35044300
O    5.11961700  -0.16734700   0.36693300
C    6.03778700   2.79252800  -0.64069300
C    5.60554300   2.17714300   0.65323500
H    1.24857100  -1.54452200   0.09368400
H    0.69835100   0.16100400   0.22730500
H    1.81523000  -0.52935100   1.45750300
H    2.49140600  -0.16366100  -1.40525500
H    2.71836800   1.69694700   0.74330600
H    3.24314400   1.90367900  -0.94495900
H    3.52588400  -0.73672400  -0.22940900
H    5.72812400   3.80050800  -0.92169100
H    6.72846400   2.24980000  -1.28964500
H    6.46814300   1.81132600   1.23432000
H    5.04165600   2.89616900   1.26692300