20

C    1.76975300  -0.57143900  -1.10104400
C    2.41569600   0.08746600   0.11153000
C    3.29801700   1.30601000  -0.27587800
C    4.48364600   0.91970500  -1.16579400
C    2.51638100   2.59455200  -0.66898100
C    3.00371200   3.21563600   0.65330500
N    3.72658400   2.00620100   0.92275600
H    1.07756500  -1.35283300  -0.75856400
H    2.50889800  -1.05180900  -1.75618900
H    1.18837000   0.14694700  -1.69782900
H    3.04603100  -0.63456500   0.65510600
H    1.63854200   0.43371300   0.81117200
H    5.15093000   1.77544600  -1.33715200
H    4.08915900   0.59514900  -2.13809200
H    5.05660100   0.09130900  -0.72550000
H    1.42978800   2.46950800  -0.74710200
H    2.89416500   3.09548300  -1.56843900
H    3.67216000   4.09558200   0.60189200
H    2.24977600   3.43012800   1.43443600
H    4.34076300   1.72887400   1.69698900