16

C    1.08784300   0.08887200   0.94052800
C    2.37068000   0.55942400   0.26947500
C    2.38274500   0.36413600  -1.19735800
O    1.60429600  -0.11442400  -1.95139800
N    3.59795200   0.88001200  -1.90338600
C    3.77282600   2.01916000  -2.77290900
C    4.08625500   0.63536500  -3.23837000
H    1.16343500   0.25114600   2.02269700
H    0.91583900  -0.98141000   0.76468000
H    0.21687700   0.64523900   0.56925800
H    3.26385700   0.02743900   0.64851200
H    2.57828200   1.62964600   0.45056300
H    4.61090800   2.67455300  -2.50226600
H    2.84751000   2.52680700  -3.06998800
H    3.39743200   0.08367700  -3.88773100
H    5.14067900   0.33760400  -3.28534000