14

C    0.84853000  -0.00124100  -0.03628400
C    2.28540800   0.13508000   0.30165800
N    2.69706900  -0.09949700   1.50813700
C    3.57244400  -0.74108900  -1.52274800
C    3.27588400   0.51410000  -0.75791200
H    0.73338200  -0.54169700  -0.98603200
H    0.44445600   1.01317900  -0.19625200
H    0.26440100  -0.49859300   0.74815000
H    3.67286900   0.02710100   1.77354600
H    2.06190800  -0.42188400   2.23691900
H    3.07596100  -0.94898800  -2.47225400
H    4.26616800  -1.47894800  -1.11441500
H    4.18605000   0.93492600  -0.30019800
H    2.82568500   1.27883000  -1.40766500