17

C    1.36596200   2.84836400  -1.13592800
O    2.12497800   2.38639400  -0.01576000
C    2.84001200   1.27122800  -0.18606600
O    4.22900400   1.57093200  -0.70924300
C    4.77404200   2.69041000  -0.42496600
C    6.38794600   2.54067800   0.63015000
C    6.18922600   2.92558200  -0.78340500
H    0.84074500   3.75075800  -0.80681400
H    0.63032100   2.08768100  -1.43654700
H    2.02038900   3.09174400  -1.98780500
H    2.46117300   0.57160000  -0.94504100
H    3.02715700   0.77504800   0.77574600
H    4.15689900   3.46584800   0.05144400
H    6.56114200   1.49371500   0.89285700
H    6.39079900   3.28772500   1.42848100
H    6.41028300   3.97530700  -1.01086000
H    6.57074900   2.21162000  -1.52199800