11

O    1.91584800  -0.65411500   1.08400000
C    2.36875000  -0.23288500   0.07458600
C    3.05216800   1.18156500  -0.00957700
C    2.56842600   1.88560000   1.34682800
O    2.55750900   3.04801900   1.46308600
C    4.47359000   1.07053700  -0.02956700
C    5.68638100   0.96703500  -0.01995300
H    2.36616400  -0.78839500  -0.89090100
H    2.67198200   1.76435300  -0.86829600
H    2.23426900   1.10825800   2.09852100
H    6.76345000   0.87919500  -0.02226000