19

C    2.22530400   4.50418900   0.29023900
C    3.67833300   4.11707100   0.24029500
O    3.75205400   2.66023700   0.08559100
C    4.83626400   1.99251100   0.00836700
C    6.14269700   2.52053000   0.05636100
C    7.36309200   1.70448800  -0.03777100
C    7.22104100   0.19762500  -0.19553300
H    2.15847400   5.59479900   0.40598000
H    1.71926500   4.03531300   1.14443300
H    1.70826400   4.22371200  -0.63689400
H    4.21375600   4.36705700   1.16859400
H    4.20269400   4.55656000  -0.62156800
H    4.66764300   0.91521700  -0.10456700
H    6.26875400   3.60247300   0.17027800
H    7.97544200   1.96539200   0.85105100
H    7.96355100   2.14563900  -0.86117700
H    6.70036200  -0.25761700   0.65984300
H    8.21640200  -0.26091200  -0.25024600
H    6.68889100  -0.07024400  -1.12023900