13

C    3.33924200  -1.37472300   0.31722100
C    2.59631500  -0.07277200   0.29118600
O    1.43232000   0.05787100   0.60500500
C    3.27162700   1.20454500  -0.05098800
C    4.65643500   1.42569800   0.08667600
N    5.22390600   2.57666000  -0.17391800
H    4.03781500  -1.40208200   1.16921000
H    3.91234000  -1.52117100  -0.61061000
H    2.62061200  -2.19369200   0.44157900
H    2.60329200   2.03146900  -0.31584700
H    5.32178700   0.61698000   0.40790700
H    4.68258800   3.38872100  -0.47316200
H    6.23272100   2.70110400  -0.09413000