13

O    0.88756300  -1.27174900  -0.00152800
C   -0.43040900  -1.49769300   0.00021900
C   -1.46122900  -0.60638000   0.00067400
C   -1.41901100   0.82214900  -0.00101400
C   -0.29197300   1.61152300  -0.00078200
C    1.06492100   1.16299300   0.00118900
C    1.55019700  -0.11048800   0.00062100
H   -0.61961100  -2.57350500   0.00080800
H   -2.44957100  -1.07257600   0.00197500
H   -2.38678000   1.32999500  -0.00228900
H   -0.43852300   2.69458200  -0.00188500
H    1.84087700   1.93243400   0.00284600
H    2.62593900  -0.30017600   0.00146600