13

C    0.87846700   0.03706800   0.00191900
N    2.29055100   0.14442200   0.16562400
C    2.98253900   1.34700100  -0.03823100
C    2.52555400   2.48055900   1.06730800
O    1.46103700   2.46650000   1.56252100
C    4.43217100   1.19395700   0.00316800
N    5.57961600   1.09422200   0.07271000
H    0.56879700  -1.01393100   0.03507400
H    0.55600700   0.52307900  -0.93097400
H    0.39347100   0.59027500   0.84203400
H    2.79098500  -0.61226700   0.64096600
H    2.66103600   1.83659600  -0.97924800
H    3.32683700   3.23695300   1.23015800