13

C    0.88490000   0.05088900   0.17075200
C    2.23280400   0.10201500  -0.04248200
C    3.08390700   1.27593800   0.01238900
N    4.32903400   0.97559600  -0.23869600
N    4.39335400  -0.29515800  -0.64508500
C    4.44221300  -1.32150600   0.33365200
C    3.13198700  -0.97627200  -0.47103200
H    0.32167400  -0.87628800   0.03942100
H    0.33591900   0.94223000   0.48512300
H    2.79743400   2.29256500   0.29013000
H    4.88481800  -2.27525900   0.03337100
H    4.55899400  -1.00742900   1.37647500
H    2.81519800  -1.75646800  -1.17068700