16

C    2.20969600  -0.85129500   1.19919200
C    2.59159700  -0.30100100  -0.18099600
C    2.71461500   1.17572000  -0.16889500
N    3.76825900   1.77817800  -0.55119600
N    4.06700100   3.05154400  -0.59306200
C    4.90740300   3.65589500   0.42729200
H    2.07884000  -1.93866700   1.13082200
H    1.26471100  -0.42184300   1.56267600
H    2.99522900  -0.65195600   1.94142900
H    1.78992100  -0.53466300  -0.90449200
H    3.52221700  -0.74571100  -0.55944000
H    1.86508400   1.78434900   0.18715700
H    4.07236200   3.45540500  -1.53476200
H    4.57145800   3.31884600   1.41610000
H    4.80854400   4.74495800   0.34349000
H    5.96076400   3.37035300   0.27535300