16

C    1.06741300  -0.10584300   0.04666900
C    2.58558600  -0.09924500  -0.05826000
C    3.21098300  -0.98848300  -1.07467300
N    2.53827700  -1.54402200  -2.07863700
C    3.19446000   1.05805100  -0.76630100
N    4.28139400   1.69260100  -0.33201100
H    0.74127300   0.64239600   0.78056900
H    0.70804200  -1.08963400   0.38068900
H    0.58414500   0.14632600  -0.90972300
H    3.05633700  -0.25284600   0.92485900
H    4.27645600  -1.21711200  -1.00020200
H    3.01868000  -2.05518200  -2.81046600
H    1.52583700  -1.50988300  -2.13015600
H    2.72641000   1.42668400  -1.68288100
H    4.68353600   1.50301400   0.57987500
H    4.73269600   2.40569600  -0.89390700