12

N    0.76322800   0.23810200  -0.36963300
C    1.87378100   0.85880100  -0.50037000
C    3.05329300   0.43204400   0.28298800
O    2.67732000  -0.63160000   1.08120000
C    3.66156600  -1.24117700   1.81429600
H   -0.07779500   0.49128100  -0.88871400
H    0.73197800  -0.54958400   0.29018900
H    1.94109400   1.70247200  -1.19654700
H    3.41585800   1.31127400   0.85738000
H    3.86036000   0.17874500  -0.43708900
H    4.52917300  -0.63865100   2.09749700
H    3.29610300  -2.06847800   2.41959100