10

O    0.98419100  -0.09198000   0.14260100
C    2.26988600   0.12339400  -0.20350000
C    2.76210000  -0.72501200  -1.25611300
C    3.24958300  -1.51547700  -2.05243400
C    2.83157600   1.44620500  -0.07983900
C    3.32587600   2.54115400   0.10056500
H    0.64330700   0.61373100   0.71405600
H    2.96969600  -0.43436600   0.57038700
H    3.66361900  -2.19547700  -2.78524900
H    3.75704600   3.52266900   0.23767700