19

C    0.80422700   0.00280300  -0.09087100
C    2.21699800  -0.31055100   0.24154700
N    2.64487100  -0.15792300   1.46409200
C    3.16073000  -0.76201700  -0.82035800
C    3.61387100   0.56111100  -1.36124700
C    4.79660700   1.27593800  -0.80794500
N    5.10752300   2.44582100  -1.58743900
H    0.73032100   0.47940600  -1.07647000
H    0.31582700   0.63422600   0.66248800
H    0.26075000  -0.95617300  -0.15392000
H    3.58219600  -0.44163900   1.74053300
H    2.05478000   0.24685100   2.18777600
H    2.63209400  -1.35976300  -1.57626100
H    3.99392500  -1.34985700  -0.40393400
H    3.00536800   1.07643600  -2.11064400
H    5.62722700   0.54070400  -0.68556100
H    4.56284900   1.60262000   0.22896200
H    5.54920000   2.20063900  -2.47026200
H    5.73621300   3.07368400  -1.09543400