17

C    2.31711200   0.86377700   1.85083700
C    2.30876200   0.82934900   0.50866900
C    2.96452400   1.90006400  -0.35429300
C    4.29491600   1.27296300  -0.39985400
C    5.39146500   1.67846800   0.36171100
C    6.63780900   1.02404300   0.29110300
C    7.73395500   1.46400200   0.99470900
H    1.80937100   0.09151600   2.43369600
H    2.79083000   1.67802600   2.40794600
H    1.85376300  -0.01409100  -0.01964100
H    2.96616900   2.88527100   0.12904400
H    2.48479000   1.95855700  -1.33965800
H    4.41177500   0.38723000  -1.03661100
H    5.28861100   2.55487300   1.01154000
H    6.73294400   0.14308300  -0.35214700
H    7.67754800   2.34476000   1.64131400
H    8.69360800   0.94603100   0.92846100