20

C    0.88349600  -0.01760300  -0.05376000
C    2.37404100   0.00539600  -0.15505000
O    2.97544000  -0.96640800  -0.89524700
C    3.09895800   1.32218200  -0.23526000
C    4.63635700   1.23673200  -0.19932700
C    5.19635200   0.16496200   0.73379600
N    4.36480900   0.05765500   1.97941900
H    0.52267700   0.70349900   0.69244100
H    0.50809600  -1.01375300   0.23019500
H    0.41862800   0.25048100  -1.02195100
H    3.38227700  -0.13814700   1.65529200
H    2.37536100  -1.70660900  -1.04616700
H    2.72589000   1.97019200   0.57603500
H    2.80956200   1.84669400  -1.16605400
H    5.04231500   2.22492800   0.06448300
H    5.02533100   1.00313900  -1.20010400
H    6.23338400   0.36517700   1.03148400
H    5.13915400  -0.82432700   0.26443300
H    4.35787800   0.92601800   2.52634100
H    4.67126000  -0.70290000   2.59506800