11

C    2.91561500  -1.11417200   0.42621200
C    2.31458000   0.08409800   0.09943400
C    3.01819300   1.29129300   0.01721100
N    2.49951000   2.49883000  -0.29567800
N    3.47955100   3.36519700  -0.26506500
C    4.58310400   2.69279100   0.06289900
O    4.34591900   1.40703900   0.24709700
H    2.32253200  -2.03104800   0.47758900
H    3.98680500  -1.17975300   0.63998800
H    1.24408300   0.15227200  -0.11467400
H    5.59434400   3.08378000   0.18405500