17

C    0.75779900   0.00351900   0.04699600
C    2.22359900   0.13497500   0.33112000
O    2.74182700  -0.66853000   1.25251200
C    3.01483700  -0.77600000  -1.41933900
O    2.71356200  -2.04252400  -1.26985600
C    2.90094700   1.40426200   0.14617400
C    3.98248000   1.77937100   0.86072700
H    0.45038500   0.62556700  -0.80237300
H    0.20713900   0.35420600   0.93651200
H    0.47658200  -1.04197400  -0.14919600
H    2.12033200  -1.36220800   1.51313900
H    4.05993700  -0.46478900  -1.31388700
H    2.38174400  -0.25066800  -2.14061100
H    3.42296300  -2.53925600  -0.83625900
H    2.47349700   2.06825300  -0.61006600
H    4.41291500   1.13213300   1.62905800
H    4.44016900   2.75830100   0.70386200