12

C    1.35067900  -0.47117800  -0.91953200
C    2.54514700  -0.53743600  -0.20108100
C    3.33874600   0.62500000   0.14751200
C    4.88082200   0.36322900  -0.12879000
O    5.37377200  -0.70184500   0.02989800
C    5.58363100   1.56459300  -0.55699100
N    6.11337700   2.53240700  -0.90161700
H    0.68861100  -1.34168200  -0.97883900
H    1.04188700   0.44888000  -1.42915000
H    2.92167200  -1.52012200   0.11761100
H    3.37660400   0.72501600   1.25649000
H    2.98741600   1.57361800  -0.28077000