13

C    0.97245100  -0.04669800   0.23515800
C    2.53809600  -0.01799500  -0.00185600
C    2.82747400  -0.79418100  -1.20924100
C    3.35855400  -0.26879400  -2.40413100
C    3.07164200   1.34271800  -0.02854300
N    3.48779000   2.41763300  -0.09207500
H    0.79041100   0.48538000   1.17836200
H    0.61808700  -1.08136200   0.32651200
H    0.45098900   0.46628000  -0.58215100
H    2.96200600  -0.57072800   0.86254400
H    2.57468500  -1.86208800  -1.17638400
H    3.47342300   0.81493300  -2.53770400
H    3.67458900  -0.93686700  -3.21233700