12

C    1.16409200   0.06074800  -0.39014700
C    2.55951200  -0.19699000   0.05381100
C    3.05532300  -1.40493000   0.49288300
C    3.46810600   0.98289000   0.22417800
O    3.90545600   1.76192200  -0.70180800
O    3.66068800   1.12955200   1.41196000
H    1.12607500   0.72600300  -1.26539800
H    0.61005400   0.56593800   0.42255000
H    0.64478700  -0.88263900  -0.60617200
H    2.48704700  -2.32511200   0.32351300
H    4.02782500  -1.48199500   0.98769500
H    3.67676500   1.47851200  -1.60113500