16

C    2.15813600  -1.02241800  -0.83460800
O    1.99061700   0.37735100  -0.56262500
C    2.97289300   1.03217100  -0.02311500
C    3.57778200   2.60739300  -1.21200100
N    2.96730300   2.72490700  -2.37822500
C    2.85520500   2.50336100   0.09202600
O    3.55407000   2.96220000   1.18267400
H    1.17062600  -1.40087800  -1.11432500
H    2.51866300  -1.53978800   0.06507900
H    2.86453600  -1.15331000  -1.66620900
H    3.85603700   0.51615500   0.37517400
H    4.67132000   2.57867200  -1.19467100
H    1.96046500   2.84210700  -2.44665500
H    3.48519000   2.67808500  -3.25004600
H    1.79857400   2.82370700   0.01985500
H    3.55029600   3.92605700   1.20574500