15

C    0.70322700   0.06926400   0.06205800
C    2.14362200  -0.01595900   0.34186400
C    3.07519100   0.92853600  -0.11404300
N    4.37080000   0.85738200   0.13404700
C    5.27008700   1.90227200  -0.39081900
N    6.55170300   1.69988300  -0.06141200
O    4.79406900   2.79085400  -1.03125200
H    0.37042500  -0.85148300  -0.45084000
H    0.42692600   0.94447400  -0.53855300
H    0.14108200   0.08103400   1.01360200
H    2.50666700  -0.86265100   0.93811500
H    2.77870100   1.79806500  -0.71436300
H    4.73766500   0.08132000   0.68587200
H    6.89225900   0.92159700   0.48725600
H    7.22844500   2.38139600  -0.38975100