14

C    1.05328600  -0.74919500   0.70930300
C    2.34385700  -0.07699900   0.26920700
C    2.19637200   1.38688600  -0.03715500
O    1.17126200   2.02658500   0.04128400
N    3.34398200   2.08915200  -0.45327700
C    3.10928800   3.39960400  -0.70478900
O    3.87683900   4.23479900  -1.06769900
H    1.25620100  -1.80868700   0.90990200
H    0.28378500  -0.68834200  -0.07143600
H    0.65822400  -0.29496400   1.62744600
H    2.76384000  -0.53709800  -0.64355900
H    3.13444600  -0.14768500   1.03811000
H    4.26690800   1.66394300  -0.55874000
H    1.98716700   3.60414500  -0.50423500