14

C    1.01279800  -0.63782900   0.05436000
C    2.26996000   0.18989900   0.08368500
C    2.15784100   1.65324200  -0.43840700
O    1.12765900   2.08572100  -0.83214300
C    3.43220100   2.55097400  -0.43799600
C    4.59287100   1.86959200   0.09459200
N    5.50489400   1.30354600   0.52376200
H    1.27409200  -1.62974800   0.45478300
H    0.63103800  -0.77973300  -0.96513400
H    0.22270900  -0.21843200   0.69079900
H    3.09143200  -0.20479600  -0.54552100
H    2.68572300   0.35293000   1.09733100
H    3.17453600   3.44650300   0.15355500
H    3.58388300   2.86002700  -1.48695400