13

C    0.98375700  -0.24539500   0.15993600
C    2.44208500  -0.04088200   0.14753600
C    3.18087000   1.10771000  -0.00454700
C    2.44726500   2.34854600  -0.18656200
O    2.89488700   3.46566600  -0.33760300
C    4.60534000   1.14359500   0.00650500
C    5.81383500   1.18094200   0.01503400
H    0.72237400  -0.97196700  -0.62823100
H    0.36443000   0.65254100   0.02768300
H    0.70330700  -0.72862200   1.11144100
H    3.04655300  -0.94697500   0.28110000
H    1.32779200   2.30665200  -0.19366700
H    6.89175100   1.20512400   0.02413400