19

C    3.28505400  -1.40397000  -0.86887500
C    2.47593700  -0.72571500   0.17439300
N    2.55549900  -1.10545400   1.44349500
C    3.31724600   1.50589200   0.12318300
N    2.47531700   2.13075800   0.97068700
C    4.67073500   1.20254800   0.50887500
C    5.64644800   0.89161500  -0.36704400
H    3.30031100  -0.82564100  -1.80102000
H    2.82929900  -2.38357300  -1.09366000
H    4.31957800  -1.57469400  -0.53552200
H    1.53628700  -0.24486900  -0.10852000
H    3.33318500  -1.66607000   1.77681500
H    1.89309000  -0.77523300   2.13564700
H    3.06519500   1.56663800  -0.94004500
H    2.77622100   2.38989100   1.90302300
H    1.63018000   2.57268100   0.63137400
H    4.89902500   1.23540900   1.58069500
H    5.46721700   0.87535900  -1.44583900
H    6.66074200   0.67469700  -0.02706300