15

C    1.16573900  -0.39811700  -0.17991500
C    1.76590300   0.54724900   0.54378800
C    2.67185100   1.58664800  -0.05383000
C    2.53506200   3.08749000   0.33792900
C    3.98570200   3.01840600   0.85472900
N    4.00278000   1.61933200   0.53003500
H    0.48439900  -1.11092200   0.28996000
H    1.31396400  -0.49003000  -1.25999700
H    1.59686700   0.62476300   1.62308200
H    2.76670400   1.42156700  -1.14655800
H    1.79315200   3.25842600   1.12765900
H    2.35465600   3.77604700  -0.49483100
H    4.76037400   3.57621300   0.29329200
H    4.17164400   3.20415100   1.92920000
H    4.66212900   0.86546800   0.75810800