13

C    0.91594300   0.11461000  -0.06592500
C    2.39940500   0.02219800  -0.02706200
C    3.10635500  -1.19870900   0.06339000
C    2.48349600  -2.43038600   0.12513700
C    1.96927000  -3.54180700   0.18192600
C    3.16413100   1.19093200  -0.08178800
C    3.81969000   2.21977200  -0.13033100
H    0.56611400   0.74346600   0.76919700
H    0.43553800  -0.86880700  -0.01329200
H    0.60563800   0.62951800  -0.99005500
H    4.20176600  -1.17603200   0.08626600
H    1.51836800  -4.52258300   0.23209700
H    4.40094600   3.12945100  -0.17322900