19

C    1.21726600  -0.07682400   0.38113000
C    2.63627600   0.23823300  -0.06392800
N    2.85381500  -0.35969700  -1.45799100
C    3.00001400   1.70239500  -0.14457000
C    2.21858000   2.54520400  -0.93579700
C    4.13114000   2.10120100   0.57499800
N    4.59319700   3.36407600   0.65651700
H    1.07273900   0.33063700   1.39005700
H    1.03173900  -1.16079800   0.42592000
H    0.46536700   0.38850200  -0.27262700
H    3.35167100  -0.29726300   0.57652800
H    2.27979300   0.15314500  -2.14060000
H    2.60926800  -1.35593100  -1.51112800
H    1.28333500   2.21221600  -1.39328100
H    2.47200300   3.59344400  -1.09919400
H    3.83095500  -0.24240700  -1.75142400
H    4.71208500   1.36096300   1.13143000
H    4.06872800   4.14586000   0.28752200
H    5.37686000   3.58555700   1.25425800