15

C    0.91379500   0.01327900   0.12224400
C    2.42463100  -0.06660600   0.06564700
N    3.17687000   0.86119100   0.87135500
C    4.15672300  -0.07637700   1.34760600
C    3.26453800  -1.20943600   0.76123100
O    3.79425000  -2.21815400   0.02436200
H    0.50640000  -0.82625500  -0.45774600
H    0.54149500   0.94564600  -0.32496900
H    0.55045300  -0.06852600   1.15594200
H    2.77933500   0.03259300  -0.98500500
H    2.91700900   1.78610500   1.23158500
H    5.13538800   0.06259100   0.84584700
H    4.32817800  -0.02035200   2.43610800
H    2.65775300  -1.65861400   1.56242000
H    4.38750600  -1.90187400  -0.66599900