18

C    1.02651300  -0.10284100  -0.04290300
N    2.26009900  -0.04668000   0.66827900
C    3.09836200   1.05350600   1.09924000
C    4.10716300   0.03089300   1.66186200
C    3.15013000  -1.07409200   1.16899400
C    3.66612300  -2.06535500   0.11498000
O    4.59597900  -2.83057200   0.79845500
H    0.45192400  -0.98402100   0.27580700
H    1.23819000  -0.19986100  -1.12569100
H    0.45764300   0.82258500   0.11840300
H    2.57185800   1.70804600   1.81680800
H    3.42214700   1.67977100   0.24794100
H    5.08517100   0.02702100   1.16628300
H    4.24832600   0.06815200   2.74742400
H    2.65495600  -1.66015100   1.96746100
H    4.10267400  -1.49570100  -0.72918400
H    2.81221700  -2.65373200  -0.27350600
H    5.04237600  -3.43599400   0.19816300