16

C    0.43132300   1.37815000   0.34245300
C    1.39160000   0.39861500  -0.33145500
C    1.04753000  -1.04479500   0.03249200
C   -0.37918600  -1.36001000   0.04433700
C   -1.36467600  -0.35229500  -0.04432100
C   -1.01815400   1.06708600  -0.02704900
H    0.66851100   2.41160200   0.05874600
H    0.54124400   1.32416700   1.43817900
H    2.42912300   0.61210000  -0.04380300
H    1.34351700   0.51309400  -1.42698800
H    1.37754600  -1.29767400   1.07253700
H    1.59114800  -1.80300200  -0.56158200
H   -0.69939100  -2.40241100   0.15568100
H   -2.41352100  -0.64911800  -0.15985600
H   -1.26036700   1.40573300  -1.06686200
H   -1.76608900   1.62548600   0.56633100