20

C    2.09440800  -0.83900500  -0.61849600
C    1.94164700   0.47801700   0.15013000
C    3.22079700   1.26959000   0.11090900
C    3.52864200   2.24910700  -0.96523000
C    3.12875600   2.81471100   0.36992000
C    4.14588600   3.40314400   1.35694300
N    4.25899100   4.73873500   0.89263900
H    1.15555000  -1.40781200  -0.57517900
H    2.88816000  -1.46546200  -0.18626200
H    2.33570700  -0.65945000  -1.67627000
H    1.67354700   0.26938600   1.19788100
H    1.12138800   1.07314800  -0.28212300
H    4.08391100   0.79051800   0.58587200
H    2.81057100   2.36777000  -1.78072400
H    4.57915700   2.34186700  -1.25961700
H    2.11991200   3.22629600   0.46492300
H    5.11074800   2.88282300   1.27846200
H    3.78277900   3.37569100   2.39099000
H    4.76655400   4.94125800   0.03104000
H    3.61447700   5.46312300   1.21132000