16

C    2.08083000  -0.46558000  -1.39340800
C    2.62850500  -0.06380200  -0.01611600
C    3.15313100   1.32668200   0.01416400
C    2.35448600   2.51422600  -0.24994700
N    3.14653900   3.58987800  -0.15237400
C    4.42362900   3.18163400   0.15892300
C    4.43904300   1.78192200   0.26335500
H    1.70635100  -1.49685800  -1.35262800
H    2.86475500  -0.41684900  -2.16200300
H    1.24429300   0.17598700  -1.70932600
H    3.42570600  -0.75067700   0.29910300
H    1.82409400  -0.14421600   0.73642800
H    1.29251800   2.59401400  -0.48520300
H    2.85386100   4.55474300  -0.28288500
H    5.23012900   3.90408900   0.28466400
H    5.31276300   1.17860000   0.50024500