12

C    1.69986500  -0.37755900  -1.22573400
C    2.15651700   0.17226400  -0.10306900
C    3.22734400   1.21325800  -0.06395200
O    3.68615800   1.62744800  -1.34439800
C    3.43291700   2.88294700  -1.46730300
N    2.85040600   3.43050300  -0.39913100
O    2.71938100   2.46959800   0.46948500
H    0.92514400  -1.14589500  -1.17658500
H    2.07894100  -0.11546000  -2.21658700
H    1.79491800  -0.11678600   0.88797900
H    4.10250500   0.94232700   0.55568000
H    3.68807300   3.42782000  -2.38025100