16

C    0.69275900  -0.02761900   0.38594600
C    2.15792400  -0.01489400   0.49683400
C    3.02160800   0.93345000  -0.02947500
C    2.66017400   2.26373000  -0.58919800
C    4.47511200   0.65831200   0.19962900
N    5.38575000   0.58705700  -0.75200900
O    4.64893700   0.60251900   1.41373700
H    0.35806400  -1.00376000  -0.00349800
H    0.26758000   0.78035700  -0.21883600
H    0.27671800   0.02397500   1.41022300
H    2.61540200  -0.84998300   1.03938800
H    1.57830100   2.37524100  -0.72494400
H    3.17316500   2.44730600  -1.54537000
H    2.99347500   3.05365900   0.10691500
H    5.13099900   0.62640300  -1.73237700
H    6.36637500   0.46956200  -0.50879500