16

C    2.48967500  -1.27409600   0.75281600
C    2.15297100  -0.03546400   0.28313300
C    3.09110900   1.01210100   0.02552600
C    2.61637100   2.20209600  -0.54695600
C    4.52659200   0.89202500   0.33070600
C    5.52568600   0.82121300  -0.82032100
N    5.36191200   2.01386900  -0.04850000
H    1.71939600  -2.03002300   0.92529500
H    3.52409300  -1.56533200   0.95289500
H    1.10090800   0.17349700   0.06849100
H    1.56007500   2.32177600  -0.80186700
H    3.31704000   3.02403100  -0.72435400
H    4.78618600   0.30627100   1.21819300
H    5.14814100   0.85161800  -1.84699600
H    6.39628800   0.17616700  -0.66161500
H    6.11505600   2.17710700   0.61840400