16

C    0.92085100   0.09775300   0.04718500
C    2.40168500   0.01346800   0.00235800
C    3.17353600  -1.13839800  -0.00396600
C    4.63624900  -0.78286200   0.00576500
N    5.24669200  -1.25757000  -1.18342500
C    4.59392500   0.72553400  -0.00734100
C    3.29422500   1.14908100  -0.00155100
H    0.45173800  -0.89267600   0.07591800
H    0.55200500   0.64042200  -0.83833900
H    0.59885100   0.67538700   0.92759500
H    2.80699600  -2.16483900  -0.05711400
H    5.15600100  -1.16738200   0.89789600
H    4.85967000  -0.99939200  -2.08451800
H    5.96679100  -1.97106500  -1.17446500
H    5.48995000   1.34524000  -0.06365600
H    2.96594600   2.18990000   0.01911900