18

C    1.83726900  -1.34897500   0.78113500
C    1.84538400  -0.07553700  -0.03201800
C    3.13945500   0.85492800   0.20970700
N    4.31630300   0.19951800  -0.15888700
C    4.82622400   0.22572700  -1.52008900
C    6.08596200  -0.54041800  -1.74290400
O    4.18016400   0.84512200  -2.31379100
H    0.87016300  -1.85327500   0.63196500
H    1.93349800  -1.15416500   1.85979700
H    2.61973300  -2.05817200   0.47314600
H    1.01797100   0.59548000   0.24152900
H    1.80679400  -0.25205700  -1.11690900
H    3.16590000   1.08630400   1.28506000
H    2.99940800   1.73689800  -0.43176500
H    4.77067800  -0.42206000   0.51770900
H    6.88525400  -0.16016700  -1.08779500
H    6.38660500  -0.42814600  -2.79042700
H    5.93564000  -1.60821300  -1.51975000