13

C    3.10630700  -1.26321400   0.40495400
N    2.55342100   0.05213900   0.16488700
C    3.20066600   1.20358500   0.02390400
N    2.45215500   2.30744400  -0.19533100
S    3.39827300   3.59784000  -0.33979300
C    4.89565100   2.73847300  -0.11308300
C    4.63571700   1.42283200   0.07735300
H    2.80732400  -1.93508100  -0.41314300
H    2.70134900  -1.65832100   1.34832100
H    4.19790900  -1.22264100   0.46395300
H    1.53622600   0.13325900   0.09045200
H    5.86357900   3.24144900  -0.13262700
H    5.39320700   0.65905400   0.24390300