17

C    2.47714100  -0.43914900  -1.58235600
C    2.47797100   0.11773300  -0.17417000
C    3.46053500   1.37182200  -0.01542900
O    3.52233200   1.73841200   1.31792200
C    3.14086700   3.07056800   1.46222400
C    2.87268600   3.58411800   0.11071100
C    3.08181500   2.56874000  -0.77235500
H    1.82031300  -1.32148900  -1.60203300
H    3.47728700  -0.76704800  -1.90019700
H    2.08380100   0.27324300  -2.32114800
H    2.83986800  -0.61237300   0.56229100
H    1.48465900   0.46864200   0.14111200
H    4.44536900   0.94183400  -0.31455100
H    3.94849400   3.62027000   1.99888300
H    2.27182200   3.13846400   2.15664400
H    2.56512800   4.60639800  -0.11380400
H    2.97389200   2.60787700  -1.85648200