18

C    0.98636200   0.13733000   0.24306000
C    2.48668000  -0.07965700   0.03019100
C    2.85245500  -1.49996400  -0.47765500
C    2.95312200  -1.38693700  -2.01199100
N    3.25501000   0.02571700  -2.21285400
C    2.32300800   1.05115600  -2.44636500
C    3.04851900   0.82124500  -1.06264300
H    0.76074700   1.17993400   0.50726600
H    0.64327300  -0.50042100   1.07006900
H    0.39462300  -0.13454100  -0.64476900
H    3.01450500   0.14019100   0.96791000
H    2.10649500  -2.25003900  -0.18298500
H    3.82191900  -1.81512200  -0.06824300
H    3.77581600  -1.97635400  -2.44603400
H    2.03525000  -1.63829000  -2.56577500
H    2.69072600   1.95889600  -2.93818200
H    1.29199600   0.75199400  -2.66207200
H    3.74101100   1.64373400  -0.84618300