13

C    2.72027400  -1.10200800   0.38528800
C    2.16013300   0.13247700   0.15651600
C    2.95026900   1.29952400   0.10154600
C    2.48391800   2.63934900  -0.12944100
N    3.57337500   3.39667500  -0.09461900
C    4.66861900   2.56012400   0.14788300
N    4.31363800   1.32409700   0.26500100
H    2.10043800  -2.00025200   0.42616800
H    3.79987200  -1.19963200   0.52992500
H    1.08118500   0.23148000   0.01178000
H    1.48057500   3.02690600  -0.30240600
H    3.60809100   4.40626300  -0.22147600
H    5.68259700   2.95568000   0.22045700