13

N    0.89039800   0.13103100  -0.00215800
C    2.21570800   0.01350400   0.00316000
C    3.16352500   1.05843300   0.00690500
C    4.47030100   0.60286400   0.01218200
C    4.56309300  -0.80484400   0.01276300
N    5.67423800  -1.53670900   0.01729600
S    2.98343900  -1.56016600   0.00643800
H    0.45992600   1.04942400  -0.00423900
H    0.27190700  -0.67203900  -0.00396600
H    2.87659200   2.11006100   0.00560400
H    5.34882000   1.24819100   0.01568000
H    5.65944000  -2.55023700   0.01679700
H    6.58235500  -1.08497200   0.02113800