15

O    1.53048200  -0.11120400   1.03231200
C    2.58383500  -0.08893000   0.13490000
C    3.07270100   1.30403500   0.04366600
C    4.09644400   1.84678700  -0.70589900
C    4.15208600   3.28398100  -0.41403000
O    3.15254300   3.56483400   0.50942700
C    2.46893800   2.39803500   0.81974800
H    1.17459500  -1.00115400   1.12609300
H    2.30462200  -0.42249200  -0.88809600
H    3.43861400  -0.73306400   0.43547000
H    4.76051100   1.32653800  -1.39839500
H    5.14510400   3.60577300  -0.01928300
H    4.02444400   3.91443300  -1.32602400
H    1.37650100   2.49909800   0.61666300
H    2.49054300   2.19185200   1.91605800