15

C    1.61621000   0.26866000   0.59891000
C    2.57865400   0.12288000  -0.57945400
N    3.63518500   1.12109600  -0.51525700
C    4.94866600   0.89710200  -0.35997200
N    5.32753900  -0.37465600  -0.26972300
C    5.82593700   2.02362100  -0.30294600
C    6.60024500   2.95105900  -0.25083800
H    0.81559800  -0.47318300   0.47834800
H    1.15080600   1.26424800   0.63326300
H    2.12876800   0.07394400   1.55067700
H    2.05243300   0.29952800  -1.53304200
H    3.05180600  -0.86448000  -0.61220800
H    3.34727900   2.10252900  -0.56344700
H    6.34526000  -0.45322700  -0.15927000
H    7.29070300   3.77966400  -0.20459900