14

C   -0.50075800   1.90715900   1.61036500
C   -0.68820900   0.61579000   0.91297600
N    0.19152000  -0.30006800   0.91032300
O    0.33787500  -1.40889400   0.34346100
C    0.61103400  -1.30321700  -1.27739400
C    1.10215300  -2.62907500  -1.67165700
O    0.35639000  -0.27200500  -1.73313000
H   -1.28500900   2.01566700   2.37557100
H   -0.64603600   2.72141700   0.88362000
H    0.48967900   1.98720000   2.07245100
H   -1.63770200   0.38368100   0.40122200
H    2.06983400  -2.80912700  -1.17901400
H    1.21160900  -2.65407100  -2.76241200
H    0.39755900  -3.39897600  -1.32579200