16

C    0.91252300  -0.23885200  -0.21262700
C    2.32342100   0.04956700   0.25121000
C    2.73083000  -0.69928200   1.49940900
O    3.31767700  -0.16784100  -0.77745300
C    2.72880300   1.50071200   0.14780600
C    3.79175400   2.08147700   0.81918500
H    0.66045400   0.30435200  -1.13653900
H    0.19848500   0.06597100   0.56523000
H    0.78810700  -1.31687100  -0.38510900
H    2.13837800  -0.34528800   2.35462700
H    3.79855900  -0.58267100   1.72374900
H    2.53330100  -1.77057400   1.36065000
H    2.92558700  -0.10169100  -1.66678800
H    2.17853900   2.09812200  -0.58881300
H    4.46861300   1.49900800   1.44935500
H    3.96161400   3.15952900   0.74403400