13

C    2.70010300  -1.17870800   0.36435600
C    2.18708700   0.08993400   0.16285900
C    2.97327400   1.24906500   0.09675700
C    2.49408700   2.58461500  -0.10964300
N    3.55688900   3.35255600  -0.10247700
N    4.73657600   2.68236400   0.08941400
C    4.41273300   1.43327300   0.20985800
H    2.03626500  -2.04528300   0.40662100
H    3.77128300  -1.35849600   0.48680000
H    1.10475000   0.20336700   0.04738200
H    1.48178800   2.96286000  -0.25052600
H    3.59062100   4.36449100  -0.22155200
H    5.18320000   0.68035700   0.37326200