13

N    2.61590800  -0.60094300  -1.26749300
C    2.40316900  -0.13608500   0.06619800
C    2.99305300   1.25638200  -0.08149300
N    2.26100100   2.16519900  -0.71187200
S    3.04801100   3.58766100  -0.73024800
C    4.45393100   3.00106500   0.06893500
C    4.29525800   1.67242500   0.34616500
H    3.52012400  -0.97662300  -1.55720100
H    1.98430400  -0.29938100  -2.01305900
H    2.95360400  -0.74571800   0.79203600
H    1.33485400  -0.09965900   0.30786700
H    5.30444000   3.64426800   0.29859800
H    5.02008700   1.04863500   0.86850700