15

N    3.52995200  -0.81437500  -1.70509200
C    3.01355300  -0.51176100  -0.51304200
N    2.41991100  -1.39095500   0.29355700
C    3.05914100   0.81560900   0.04676200
C    4.04323500   1.73374100  -0.23147800
C    4.08626800   3.03721800   0.35285200
C    5.08600700   3.90776500   0.07357200
H    3.76791600  -0.08787300  -2.37148100
H    3.55435300  -1.77157200  -2.04212300
H    2.71105500  -2.36852700   0.17015400
H    2.29657900   1.02273500   0.80105100
H    4.85930100   1.46408600  -0.91374100
H    3.28300000   3.32337000   1.03829300
H    5.90051700   3.64579800  -0.60850900
H    5.11253000   4.90314700   0.52290700