14

O    0.90212500   0.08080700   0.13685200
C    2.09079500  -0.04502500   0.08064800
N    2.86559300   1.18125300   0.17872500
C    4.23961700   1.31724500  -0.15262400
C    5.03910300   0.03803400   0.06587800
C    4.24015900  -1.20938000  -0.10459300
C    2.89441800  -1.24997200  -0.10113500
H    2.28572000   2.01849500   0.32968700
H    4.64709000   2.19972800   0.36900600
H    4.25878800   1.60833200  -1.23367000
H    5.45789400   0.03921900   1.08955700
H    5.91189100   0.03005000  -0.60300700
H    4.79789500  -2.14471300  -0.20659000
H    2.33431100  -2.17890500  -0.21902200