15

C    0.95010300   0.04548700  -0.01021100
N    2.41114000  -0.02615500  -0.00165000
C    3.27014400   1.05537900   0.00885800
N    4.55173600   0.69534900   0.01465900
C    4.54845500  -0.62244400   0.00796800
C    3.17597600  -1.13067300  -0.00266800
C    2.70530900  -2.52244500  -0.01400600
H    0.65309100   1.10005300  -0.00543500
H    0.54598900  -0.44384600   0.88503100
H    0.55705000  -0.43275600  -0.91629700
H    2.90272000   2.08382600   0.01190000
H    5.45755400  -1.22756300   0.01035200
H    1.61301000  -2.60797700  -0.00740000
H    3.11872200  -3.05689100   0.85798800
H    3.10517500  -3.03687900  -0.90452900