14

C    0.92933100  -0.03895400  -1.13627800
C    1.97032800  -0.24782900  -0.07547600
O    1.72860600   0.73078200   1.01099400
C    2.45681000   0.80527400   2.05786600
C    2.13599600   1.77378900   3.02972500
C    3.57660500  -0.08124300   2.23765200
N    4.47754800  -0.79217100   2.38549700
H    1.11362100  -0.76751200  -1.93844300
H    0.99346100   0.96807100  -1.56893500
H   -0.08219200  -0.21065700  -0.74546400
H    2.99807200  -0.06104000  -0.42466300
H    1.92182500  -1.24057300   0.39910400
H    1.27695200   2.42888200   2.85722500
H    2.73655800   1.86585000   3.93791000