17

C    2.91010100   1.45581800  -3.16727600
C    2.80788800   0.99197200  -1.73321600
O    4.09967200   0.80560200  -1.16996600
C    4.39299000   1.29268400   0.15413800
C    5.36322700   0.37259100   0.85771300
C    4.93938000   2.55510100  -0.33880500
C    5.38427400   3.56025100  -0.87283100
H    1.90400300   1.47307600  -3.60732700
H    3.54134700   0.78187500  -3.76113500
H    3.32839800   2.47274700  -3.20399000
H    2.37249600  -0.03017600  -1.68267600
H    2.20616000   1.65189300  -1.08856600
H    3.45910500   1.44226100   0.71987300
H    6.26618400   0.21563300   0.25403600
H    4.87724400  -0.59108500   1.05921900
H    5.64600900   0.82939200   1.81637400
H    5.79051700   4.46334700  -1.30486600