18

N    2.40582900  -0.11599500   2.02072000
C    2.34597400  -0.29886100   0.53374100
C    3.33525900   0.64692800  -0.13528300
C    4.79318800   0.42255600   0.31014700
O    4.95713900   0.10242800   1.57843000
C    5.50834500  -0.81733000  -0.54593700
O    6.83709800  -0.86237900  -0.31988200
H    1.91943000  -0.85419500   2.53876100
H    2.01663300   0.78630300   2.31511900
H    1.31582500  -0.12876900   0.19528700
H    2.59555400  -1.35181700   0.34091000
H    3.05971900   1.69191300   0.08645200
H    3.23622900   0.54172700  -1.22563500
H    5.46300500   1.24487100  -0.01711700
H    3.44934800  -0.11529600   2.23445000
H    5.32221000  -0.54691000  -1.59488300
H    4.95413400  -1.73083300  -0.27087400
H    7.03050300  -1.26005900   0.53744100