15

O    1.66514700  -0.14263600   1.15181300
C    2.66634100  -0.05400500   0.20544100
C    2.95127400   1.37364900  -0.04824000
C    3.89001100   1.92038400  -0.93011300
O    3.90088800   3.20994800  -0.92534800
C    2.91518000   3.73493800   0.01300900
C    2.25728400   2.49805900   0.62208300
H    1.45480500  -1.06310400   1.34021400
H    2.40415300  -0.52574400  -0.76860800
H    3.61918900  -0.53972800   0.51568100
H    4.59297100   1.42020600  -1.60131400
H    2.24331900   4.37374900  -0.57517400
H    3.47197500   4.35998300   0.72343100
H    1.16815700   2.43068500   0.44790000
H    2.37211000   2.41590600   1.71809300