13

C    0.87728800   0.07256100  -0.00539800
C    2.36884900   0.04104200  -0.00176500
C    3.27223700   1.04561700   0.00550400
O    4.55450100   0.54810400   0.00646600
N    4.55642400  -0.75174100   0.00020500
C    3.22781300  -1.11802600  -0.00516100
N    2.93805400  -2.39998700  -0.01203200
H    0.51421900   1.10728100  -0.00129600
H    0.47052100  -0.42987900   0.88506200
H    0.47499200  -0.42119500  -0.90272100
H    3.19644000   2.13151800   0.01049500
H    1.97435600  -2.72948000  -0.01627200
H    3.68966400  -3.09212000  -0.01352700