13

N    1.00974000   0.02326900   0.08726200
C    2.32032900   0.05322000   0.02432000
C    3.07122600   1.23990500  -0.04342300
C    4.46124000   1.12628800  -0.05651200
N    5.13793400  -0.00422500   0.12861000
O    4.46066100  -1.12307000   0.24766100
C    3.07770400  -1.23327700  -0.07461100
H    0.49052500  -0.84977000   0.13785800
H    0.46269600   0.88134100   0.08654900
H    2.59284300   2.22067400  -0.06372400
H    5.10462700   2.00381400  -0.15282900
H    2.68230200  -2.00989700   0.59626500
H    3.00048800  -1.60665300  -1.11471500