17

C    0.59865900   0.97669300  -0.32111700
O   -0.27481100  -0.00208900   0.11987100
C    1.02905700  -0.46805000  -0.10249300
C    1.83476500  -0.77929000   1.06769500
C    1.56693900  -0.20371600   2.42937100
C    1.31542200  -1.59382900   3.12010700
C    1.14251000  -2.30513300   1.82024200
H    0.51326900   1.29066100  -1.36827800
H    0.89828000   1.73960900   0.40739000
H    1.17920000  -1.07891000  -1.00073900
H    2.86793800  -1.07894900   0.84688200
H    0.66026800   0.41368400   2.44867400
H    2.42770100   0.32516700   2.86321900
H    2.19397600  -1.93028900   3.68328700
H    0.41949100  -1.58421900   3.75570300
H    1.82756800  -3.10534700   1.51514600
H    0.12792900  -2.38132700   1.41208200