17

C    1.02466900   0.10799800  -0.00088700
C    2.49544900  -0.20573300   0.06680600
C    3.29745800  -0.89057100  -1.02615000
C    2.73497500  -1.36370100  -2.34114500
N    3.41598300   0.52617500  -0.76397100
C    3.65690700   1.71240700  -1.29896300
N    4.31121700   1.89262400  -2.42681500
H    0.78837800   0.97845000   0.62609100
H    0.46783600  -0.75230200   0.39591100
H    0.68503100   0.30334600  -1.02619300
H    2.89578800  -0.36896700   1.07673300
H    4.16450800  -1.45235900  -0.65355100
H    1.92772300  -0.71714700  -2.70864600
H    2.33361800  -2.37686400  -2.19782600
H    3.52162300  -1.42473400  -3.10533600
H    3.24957000   2.58298600  -0.76874200
H    4.76352900   1.03433400  -2.76828900