17

C    0.88863000   0.02490400   0.17334300
C    2.42376300   0.03159300   0.07103000
C    2.99909400   1.16988800  -0.70585700
C    3.83642500   0.69586000  -1.71310000
C    3.85472300  -0.70811000  -1.66866600
C    3.01927000  -1.15882000  -0.62967000
C    2.72238500  -2.55487700  -0.28271800
H    0.54038800   0.94120300   0.66819800
H    0.54930300  -0.82994700   0.77339800
H    0.42604300  -0.03346800  -0.82193900
H    2.83893700   0.06486600   1.09924800
H    2.78489200   2.22129200  -0.50132100
H    4.39346300   1.31443500  -2.41786500
H    4.43048600  -1.35721300  -2.33059700
H    3.42343400  -3.26345200  -0.74011500
H    1.70561600  -2.79455500  -0.65070600
H    2.68743300  -2.69592700   0.80873100