16

C   -0.42870500  -1.53667800  -0.35791100
C    0.75355400  -1.22420000   0.56069000
C    1.24242300   0.17819000   0.41733800
N    1.08085400   0.82439800  -0.81004600
C    0.03179400   1.31354100   0.04318000
C   -1.28074900   0.74658300   0.11180700
C   -1.53763900  -0.56964500  -0.16558000
H   -0.77088300  -2.57121100  -0.22950300
H   -0.09996500  -1.43975500  -1.41594700
H    1.61480300  -1.87078500   0.31543400
H    0.50893500  -1.42609100   1.61511600
H    2.02248600   0.52609400   1.10606300
H    1.77765200   1.54635200  -1.00183400
H    0.15079000   2.34041900   0.40173000
H   -2.07920900   1.40955800   0.45392300
H   -2.57503200  -0.91207000  -0.22005300