17

C    0.83328100   0.04442400  -0.08824800
C    2.29355800   0.28491400   0.26468400
C    3.10877700   0.75442900  -0.90650900
O    2.84575400   1.05711800  -1.99934100
C    4.88698500   0.79883200  -0.53591500
C    5.52469800   1.83408800  -1.41163000
O    5.00942500   0.91540800   0.78268800
H    0.30946300  -0.27877800   0.82150200
H    0.72565200  -0.74471100  -0.84400500
H    0.35128600   0.95888100  -0.45789300
H    2.80578900  -0.60635300   0.66319600
H    2.43513300   1.06588400   1.03247800
H    5.03086000  -0.25400100  -0.83767300
H    5.20368500   2.85318000  -1.14647500
H    5.29007000   1.65263600  -2.46752900
H    6.61563700   1.76085200  -1.27660100
H    5.22688600   1.82191200   1.05193300