17

C    0.88736000   0.01329800  -0.09565500
C    2.42872400  -0.03404200  -0.00848600
C    3.06046900   0.18436400  -1.40099100
C    2.94716300  -1.31366900   0.68672900
N    3.60996200  -0.77057900   1.86045800
N    3.58419800   0.52289800   1.98688500
C    2.92198100   1.00168000   0.94792300
H    0.41652200  -0.12323900   0.88852600
H    0.53851300  -0.78609800  -0.76487200
H    0.55485200   0.97388000  -0.51240400
H    4.15912900   0.17090500  -1.35960400
H    2.73792800   1.14588900  -1.82335700
H    2.72559900  -0.61368800  -2.07889900
H    3.67688700  -1.88949600   0.09328800
H    2.15417200  -2.00920700   1.00863400
H    4.08772600  -1.31526900   2.58406300
H    2.78263000   2.08233400   0.85756200