11

O    0.72438300  -1.17459100  -0.60843800
C   -0.43445400  -1.40448400   0.08925200
N   -1.35653900  -0.54748300   0.16972900
C   -1.41005200   0.75728300  -0.10903700
C   -0.29980400   1.57584700   0.04101400
C    1.02207700   1.05014200   0.11274700
N    1.47976900  -0.10458000  -0.30826200
H   -0.49361800  -2.41233700   0.51627300
H   -2.39044100   1.15622100  -0.39102500
H   -0.41549900   2.66279100   0.03273600
H    1.84866700   1.71501900   0.38729000