17

C    0.95347400  -0.10388200   0.14297800
C    2.41838600   0.17682500  -0.05563400
C    3.14122400   1.19864700   0.84338400
C    4.00855000   0.01045800   1.19850000
C    5.58775200   0.07068900   0.39309800
O    6.35911100   0.93105100   1.04390900
O    3.26063000  -0.88322100   0.53737900
H    0.66109200  -1.01242300  -0.40016700
H    0.37805500   0.74108900  -0.26228800
H    0.70915200  -0.22195300   1.20747600
H    2.67517300   0.24617300  -1.12539100
H    2.53628600   1.53725700   1.69798200
H    3.60598300   2.06965200   0.36320200
H    4.35267800  -0.28684900   2.20208200
H    5.31627800   0.32770200  -0.64239200
H    5.91846600  -0.96559800   0.53672200
H    6.31205900   1.83016000   0.68835600