17

C    1.00370000   0.14689200  -0.12564000
C    2.46999300   0.18826200   0.06635900
O    2.93174000   0.91175100   1.05967500
C    4.31761200   0.66202700   1.33828900
C    4.53832500  -0.85918400   1.16311200
C    3.21663900  -1.49095900   0.79776300
O    3.13685600  -2.47438100  -0.06654200
H    0.72231900  -0.71536500  -0.74476600
H    0.69503800   1.05885600  -0.66558800
H    0.47595500   0.12215400   0.83693400
H    3.11017600   0.12118800  -0.83278400
H    4.93937700   1.25137400   0.64879600
H    4.48804700   1.01399000   2.36060600
H    5.28289400  -1.06444300   0.37803300
H    4.90792900  -1.32895700   2.08811800
H    2.44747000  -1.58571000   1.57557800
H    3.91568200  -2.54560200  -0.64014800