14

N    1.01893900  -0.38389400   0.16298500
C    2.31575900  -0.23652300   0.13270600
C    2.96591500   1.02186200   0.06496900
C    2.28575300   2.34060000   0.01874900
O    0.89573500   2.21014700   0.04983100
C    4.45565800   1.03251300   0.03770800
O    5.06120800   2.06949800  -0.01852800
H    0.59209400  -1.30751700   0.21183900
H    0.43798200   0.46947100   0.13553000
H    2.92739700  -1.14606300   0.16185600
H    2.64803000   2.86350600  -0.89128300
H    2.67996300   2.94157800   0.86502500
H    0.46676000   3.07229500   0.01821600
H    4.96466500   0.04225300   0.07186500