15

N    1.09064700   0.71225700  -0.57058900
C    2.27750200   0.32236000  -0.26824500
C    2.94603100   0.62639100   1.01906200
N    3.94696700  -0.35325100   1.33414300
C    3.55719900  -1.65495400   1.60897600
C    5.27608500   0.06813200   1.26960900
O    5.57794100   1.18399900   0.94097900
H    0.68801300   0.53472400  -1.49188700
H    0.50511200   1.22362800   0.09289300
H    2.83945300  -0.22638500  -1.03506100
H    2.21713100   0.76848400   1.83695700
H    3.48714000   1.58880800   0.87001000
H    4.34333300  -2.38361100   1.80798400
H    2.54400100  -1.81859100   1.97882000
H    5.99539700  -0.72813100   1.54745400