20

C    2.62904800  -1.46620100  -0.54361800
C    2.00549200  -0.17040300  -0.06896200
N    1.16927800  -0.31598800   1.05384800
C    3.05814900   0.92569400   0.40806200
C    4.04799200   0.49039900   1.46258900
C    3.52498700   1.79964400  -0.75973700
C    2.65366900   2.37095600   0.31331300
H    3.35970300  -1.24732900  -1.33303200
H    1.85939900  -2.13182400  -0.95778300
H    3.15070800  -1.99483500   0.26737100
H    1.42358300   0.32110900  -0.86478800
H    0.50015900   0.41333400   1.30443300
H    1.36314800  -1.02034400   1.76891100
H    4.77983300   1.29509700   1.62119900
H    4.60736300  -0.40524400   1.15779100
H    3.57390200   0.30378300   2.43708200
H    3.09409200   1.63338600  -1.74956700
H    4.59611100   2.01875700  -0.76305100
H    3.08681100   3.05870100   1.04308100
H    1.62521200   2.61204400   0.02643600