15

C    0.96595800  -0.06766900   0.36543100
C    2.43672400  -0.05965300   0.05581900
C    3.18075000  -1.17152800  -0.14495500
N    3.05822800   1.19756500  -0.04284200
N    4.36166500   1.33975400   0.09040200
C    2.35776200   2.42119800  -0.39855400
O    2.97303600   3.43314200  -0.47249800
H    0.71657500   0.59360300   1.20751600
H    0.66700900  -1.08677500   0.63760300
H    0.36064000   0.21960400  -0.50826300
H    2.72184400  -2.15393200  -0.02556100
H    4.22023000  -1.14148400  -0.47860700
H    4.85474300   0.69376500   0.70300300
H    4.69530400   2.29957800  -0.04062300
H    1.28165900   2.27609700  -0.58664100