18

N    2.10250900   0.41498900  -1.24748000
C    2.64127000  -0.01495700   0.01077000
C    3.03735300   1.18416500   0.88893300
O    4.01023400   1.95674900   0.20997000
C    3.60063100   2.72465200  -0.77915200
C    4.63968900   3.38661200  -1.62124800
C    4.08704000   2.22399800  -2.33215100
H    1.11761400   0.67099100  -1.22701200
H    2.28197700  -0.21441500  -2.02430800
H    3.53143300  -0.63542800  -0.16333600
H    1.93332500  -0.61512200   0.61071400
H    3.50292000   0.84319300   1.82058900
H    2.16074800   1.80935800   1.12591700
H    2.57326200   3.10114800  -0.75417300
H    5.65533700   3.28816400  -1.22643800
H    4.36028900   4.37885700  -1.98762600
H    3.30412200   2.34363400  -3.08239100
H    4.63811600   1.28232100  -2.32146300