18

C    0.81551100  -0.01814200  -0.18756800
C    2.29524700   0.00976500   0.03941900
C    2.76704500   0.03923400   1.47010400
N    3.12149300  -0.58074800  -0.95439500
C    3.25622000   0.80316600  -1.03267600
C    4.45771300   1.59894100  -0.48075900
O    5.29733200   1.81373700  -1.55392600
H    0.54888000   0.12395700  -1.24357600
H    0.33199600   0.76691100   0.41230400
H    0.40564600  -0.98344400   0.15371800
H    3.83370300  -0.18029300   1.58058600
H    2.20859300  -0.74235700   2.00934000
H    2.52701000   1.00243300   1.94076000
H    2.68566400  -1.07431900  -1.73863700
H    2.84602100   1.27635300  -1.93428100
H    4.93311500   1.06674900   0.35430300
H    4.08335700   2.56790100  -0.12425000
H    5.90119600   1.07085300  -1.67303700