14

C    0.97971300   0.02932400  -0.00384900
C    2.41555000  -0.01762400  -0.01372400
C    3.65209600  -0.08682100  -0.03868100
C    5.05552500  -0.11330200  -0.06330600
C    5.68195700   1.44774500   0.12606000
O    7.01653700   1.38265900  -0.00865400
H    0.63646800   0.96851700  -0.47156700
H    0.57138700  -0.05757500   1.01233100
H    0.59062400  -0.79190000  -0.63251500
H    5.46508200  -0.42558000  -1.03498400
H    5.48292000  -0.68117700   0.77635500
H    5.32205000   1.79129700   1.10750000
H    5.25030100   2.02016100  -0.70433000
H    7.46367000   1.20965400   0.83107400