20

C    0.68017400   0.64919500  -0.17141000
C    2.12027300   0.29507100  -0.11390300
C    2.98804700   0.71438800   1.02954600
C    4.22461300  -0.20434400   1.15001200
C    5.32902600   0.07301800   0.13437400
C    3.68580100  -1.58822000   1.11323800
N    4.17330600  -2.54659100   0.40256500
H    0.13610000   0.03265600  -0.90058200
H    0.55028700   1.70236100  -0.49074100
H    0.19057000   0.55691400   0.81073100
H    2.61492500   0.01985700  -1.05378100
H    2.41109000   0.68332200   1.96938400
H    3.33306500   1.76259900   0.93095500
H    4.63853100  -0.09278100   2.17204100
H    4.97765800  -0.03622300  -0.90361700
H    6.20863500  -0.57194200   0.28753300
H    5.67729400   1.10755000   0.25057000
H    2.83891100  -1.84196100   1.76222100
H    4.96304800  -2.38821100  -0.22410500
H    3.78060100  -3.48665500   0.42488400