19

C    0.98966000  -0.07929300  -0.03913000
C    2.51490600  -0.02771200  -0.02359200
C    3.03260100   1.41617500   0.04061100
C    4.55572400   1.42892900   0.05475600
C    5.06193000   2.96203700   0.12176800
N    6.45292700   2.98462200   0.13537800
H    0.64418300  -1.12147100  -0.08510600
H    0.57897700   0.44948000  -0.91214500
H    0.56331500   0.37617400   0.86707000
H    2.91557300  -0.52004600  -0.92476800
H    2.90007900  -0.59303400   0.84075700
H    2.64171600   1.91015800   0.94497500
H    2.65749800   1.98322000  -0.82681300
H    4.97774300   0.97692400  -0.85474000
H    4.96165500   0.90409000   0.93188400
H    4.65657500   3.38972400   1.04929900
H    4.67318200   3.46477100  -0.77463200
H    6.98155700   2.88776400   1.00592600
H    6.99752100   2.96048700  -0.73037000