15

C    1.97115500  -0.32627800  -1.10134000
O    3.16922700   0.22411300  -0.56353300
C    3.18857200   1.50830800  -0.22077100
C    2.18664000   2.40991700  -0.24750700
C    4.56077000   1.92452500   0.16831700
N    4.77037200   2.84741800   1.07873700
N    5.59805400   1.41389500  -0.49364800
H    2.20081300  -1.36505200  -1.35725400
H    1.66852800   0.22523900  -2.00519200
H    1.16562300  -0.30161000  -0.35175800
H    1.16651700   2.13261600  -0.51685400
H    2.37501100   3.46226000  -0.03122300
H    4.00973900   3.19666300   1.65572500
H    5.71611100   3.18063800   1.26135700
H    5.48047100   0.42471900  -0.75308600