15

C    2.36866800  -0.16310400   1.11481600
O    3.64791000   0.45420300   0.84311000
C    3.75303200   1.59790100   0.29746700
C    5.03282300   2.15952200   0.06874500
C    6.28705300   1.46603900   0.38600300
C    5.07561700   3.51676500  -0.56494900
O    6.12542700   4.06620600  -0.75513300
H    2.37289700  -1.12584300   0.59036200
H    1.55072900   0.48225900   0.76932100
H    2.32625800  -0.32399700   2.19857600
H    2.83536700   2.13828200   0.01635400
H    6.16427000   0.67004400   1.12990500
H    7.05562500   2.19605000   0.68148400
H    6.67244900   1.00336900  -0.54598800
H    4.10129900   3.97461800  -0.85094400