13

N    1.01780400  -0.16475000   0.31080700
C    2.28781200  -0.32668300   0.07660400
N    2.85986200  -1.40045600  -0.36416700
C    3.12710100   1.04930400   0.23897700
O    2.47089000   1.96631900   0.62747800
C    4.54368500   1.00423800  -0.10252100
C    5.31963400   2.08172900   0.09154800
H    0.70780300   0.77705500   0.56490200
H    0.35035100  -0.93114900   0.26798400
H    3.64300500  -1.88395200   0.08266500
H    4.93685700   0.08023500  -0.53498000
H    4.91362400   3.00570200   0.51286800
H    6.38055500   2.06070400  -0.16779600