21

C    2.30579400  -1.26374400  -0.98374800
C    3.02016500   0.06336400  -1.18501800
C    1.97742100   1.22710200  -1.25662800
O    2.62203100   2.40842300  -1.56121400
C    2.60246200   3.52220400  -0.67860000
C    3.78590000   3.30652400   0.30146600
C    2.73255700   4.78380500  -1.50656000
H    3.06302900  -2.05554000  -0.88874200
H    1.66218600  -1.51806800  -1.83776300
H    1.69835300  -1.27307200  -0.06744900
H    3.61226600   0.07204100  -2.11081800
H    3.69426900   0.29252600  -0.34602800
H    1.36355800   1.31717600  -0.34769300
H    1.34843000   1.00501500  -2.14472800
H    1.65960600   3.47631400  -0.10598100
H    4.73620500   3.25144000  -0.24521300
H    3.64283200   2.40640000   0.91304300
H    3.79624400   4.18557200   0.96144200
H    3.68004700   4.79918500  -2.06263200
H    2.71047800   5.64698500  -0.82721300
H    1.89583500   4.87577400  -2.21147800