18

C    1.00582800   0.07558000   0.18160900
C    2.47830800  -0.19454400   0.16353900
C    3.00430900  -1.47952100   0.49598300
C    2.23528000  -2.53422600   0.90408700
C    3.35372200   0.85858200  -0.16588500
C    4.83181900   0.88752700  -0.11658200
N    5.35560600   1.88213100  -0.99344000
H    0.77725400   1.09580700  -0.14793900
H    0.60098900  -0.05056000   1.19857900
H    0.46882100  -0.62752400  -0.47360400
H    4.08264300  -1.63600900   0.42095600
H    1.14762600  -2.46843000   0.99038800
H    2.69615000  -3.49087400   1.16181200
H    2.90681300   1.81379800  -0.46696100
H    5.26663700  -0.12888800  -0.22770900
H    5.06934400   1.15929700   0.93611300
H    5.32207000   1.62947900  -1.97605500
H    6.28444200   2.20673300  -0.74785100