14

O    1.29020300  -0.04727100   0.73138900
C    2.36429500  -0.01264800   0.23636900
C    3.20081100   1.26900100  -0.01298400
C    4.30966700   0.77313600  -0.94289300
C    4.56209000  -0.66346800  -0.49818300
C    3.16423400  -1.24113200  -0.26890200
H    3.56102900   1.51390600   1.00461800
H    2.55374100   2.08704500  -0.35981600
H    3.97350200   0.81443400  -1.98970300
H    5.19236200   1.42303100  -0.85170900
H    5.09804100  -1.26699200  -1.24539000
H    5.14389800  -0.69672700   0.43503900
H    2.63602100  -1.49359500  -1.20828000
H    3.05409700  -2.08274100   0.42953700