18

C    0.95673100  -0.02416500   0.41083700
C    2.40454500   0.01044100  -0.03721800
C    3.21910200   1.19565500   0.57697000
C    4.05969200  -0.01873900   1.08637500
C    5.50744800   0.01590100   0.63795100
C    3.24509200  -1.20395100   0.47244800
H    0.46620500  -0.91180400  -0.01338900
H    0.44707200   0.88650900   0.06542000
H    0.86914800  -0.07326600   1.50678400
H    2.60946600   0.06085400  -1.12326400
H    2.67350600   1.77140600   1.33180200
H    3.74962600   1.84713200  -0.12520300
H    3.85526000  -0.06912800   2.17252200
H    5.59476400   0.06496000  -0.45801500
H    6.01718400  -0.89474600   0.98331700
H    5.99803700   0.90355300   1.06207000
H    3.79056200  -1.78002900  -0.28222200
H    2.71443900  -1.85512200   1.17481000