16

C    0.92896600   0.11639200   0.22761700
C    2.41106400   0.01452000  -0.09991600
C    3.33397900   1.00890200   0.68821000
N    3.88774800  -0.13040900   1.37135800
C    3.20618100  -1.11751200   0.60156600
C    2.69127400   0.01880100  -1.60471000
O    3.50860300  -0.70587000  -2.09509400
H    0.75559900   0.12014000   1.31360300
H    0.37940400  -0.73254700  -0.20396500
H    0.50649100   1.04294900  -0.18842700
H    2.85529700   1.72525700   1.37957000
H    4.09964700   1.55476800   0.10339700
H    4.44966700  -0.20129600   2.22700900
H    3.89682100  -1.61758900  -0.12204200
H    2.70267500  -1.89609800   1.20000600
H    2.10033700   0.74280200  -2.21211300