17

C    1.03160400  -0.14113400   0.45078400
C    2.49831500  -0.01103900   0.06161400
C    2.78082100  -0.63976900  -1.48721600
C    2.39714900  -2.03419500  -1.48457500
C    1.22005000  -2.49328000  -2.03091600
C    2.97149500   1.33648500   0.00888000
C    3.35921000   2.49012600  -0.05625300
H    0.87612800   0.33807500   1.42758800
H    0.74326600  -1.19897600   0.53223900
H    0.37421100   0.35772400  -0.27605900
H    3.15772300  -0.61803700   0.70218300
H    3.86085600  -0.49751000  -1.62094900
H    2.19716000  -0.01406200  -2.17476300
H    3.07809000  -2.75533600  -1.01757100
H    0.47334800  -1.80147500  -2.43369100
H    1.01236400  -3.56450700  -2.10371000
H    3.70457700   3.51142300  -0.09009000