17

C    0.85368500   0.08575200   0.47500500
C    2.17711400   0.40868600  -0.21069700
N    2.10857000   0.01359900  -1.63526200
C    2.72051200  -1.02131000  -2.17587500
N    2.48573400  -1.48725200  -3.38809300
C    2.60639200   1.85749200  -0.19896100
C    1.87935800   2.86904900   0.27770300
H    0.92411200   0.36618900   1.53461100
H    0.63836500  -0.98993400   0.41944200
H    0.01477500   0.63778900   0.02652900
H    2.97737000  -0.21043500   0.22650300
H    1.47409400   0.57227200  -2.21479900
H    3.39802200  -1.59295100  -1.52611200
H    2.12191100  -0.82095400  -4.08209700
H    3.60373500   2.04874700  -0.60883800
H    0.88474600   2.73540500   0.71064500
H    2.27743500   3.88613200   0.27006900