13

C    3.63150900  -2.00462200  -0.12494800
C    4.54985700  -0.95544100  -0.04966600
N    4.12257100   0.29556300  -0.17571200
C    5.02201200   1.27198100  -0.09917500
N    4.63462500   2.52130700  -0.21974400
C    5.50345200   3.67145000  -0.15663100
O    5.06076400   4.76025100  -0.27660400
H    3.95694700  -3.04236800  -0.02450200
H    2.57273200  -1.78429600  -0.28658000
H    5.61602500  -1.18402300   0.11342300
H    6.09999400   1.09751500   0.06313800
H    3.63724000   2.70931500  -0.37129500
H    6.56761000   3.40249400   0.00866500