17

C    0.94841000   0.00844800   0.10329900
C    2.45200100  -0.00058200   0.01028500
C    3.04550000  -1.31787200  -0.64661100
O    2.68632600  -1.36523100  -1.97517300
C    3.28607300  -0.37378200  -2.77110700
O    2.68132600   0.79033600  -2.26589900
C    3.03990800   1.09823700  -0.97245200
H    0.60226500   0.95626500   0.54348000
H    0.60633700  -0.79042000   0.77911100
H    0.46978100  -0.12475300  -0.87594500
H    2.91698800   0.13382300   0.99903300
H    2.56652900  -2.17103200  -0.14161700
H    4.14186100  -1.31906700  -0.51733100
H    4.38331600  -0.35489400  -2.64983800
H    2.96952800  -0.51439300  -3.80814100
H    4.13617500   1.13864300  -0.84880600
H    2.55678800   2.05253500  -0.71124100