21

C    3.16966400  -0.70141500   1.67831900
C    2.73015500  -0.10095800   0.34808900
C    1.21717200  -0.34327800   0.08804100
C    2.93678900   1.38819700   0.20481800
C    2.56262800   2.31072000   1.31638900
C    4.76658300   1.58191700  -0.04544700
O    5.03650000   2.85292900  -0.24147400
H    4.23996700  -0.54050100   1.88442300
H    3.01177100  -1.78834000   1.66440600
H    2.59181000  -0.29678100   2.52188200
H    3.25897400  -0.60771100  -0.47668400
H    0.60315200   0.08326800   0.89375100
H    1.04873000  -1.42921300   0.06407500
H    0.88506200   0.07265200  -0.87331400
H    2.64878500   1.76168200  -0.79110100
H    3.01053800   2.02807400   2.27924800
H    1.46528500   2.24245100   1.43600000
H    2.79854900   3.35755000   1.09037900
H    4.94226300   0.89109700  -0.88063400
H    5.05872500   1.24340400   0.95712600
H    5.08359300   3.09562100  -1.18015400