17

C    0.93378100   0.05887700   0.49265200
C    2.19657700   0.01620800   0.01074800
C    2.95163900   1.21810100  -0.48175100
C    4.35692300   1.27162500   0.12484700
C    5.06606700  -0.01984600   0.06189900
C    4.39033000  -1.21580700  -0.12054900
C    2.92694100  -1.27455200  -0.10429900
H    0.39535100   1.00536400   0.58499300
H    0.40606300  -0.84968400   0.79551100
H    2.40218200   2.14565800  -0.27705100
H    3.04863500   1.13782400  -1.58036000
H    4.35181300   1.56304900   1.19974200
H    4.96510300   2.06218500  -0.34800800
H    6.14541400  -0.04559500   0.24740200
H    4.94820800  -2.15066100  -0.22645400
H    2.64363700  -1.74994000  -1.08351900
H    2.57415300  -2.05077700   0.60483700