12

C   -1.32343000   0.66031500   0.29409100
O   -1.42658400  -0.73472800   0.15287200
C   -0.38825900  -1.48663200   0.34646100
C    0.91826100  -1.03794900   0.50225900
C    1.40885600   0.24730100   0.19268500
N    0.81689300   1.18114500  -0.53583500
O   -0.47108700   1.20101100  -0.71303700
H   -2.31624400   1.07752100   0.10743200
H   -0.92812800   0.91414300   1.29165000
H   -0.63863600  -2.55136100   0.39579300
H    1.65535400  -1.78630100   0.80286200
H    2.46087400   0.47640600   0.38903500