18

C    1.59317900  -0.57972600  -1.10275200
O    2.05780300   0.19074700  -0.01113700
C    3.18744700   0.91579300  -0.25184000
C    2.99903800   2.33038500  -0.90163100
N    3.58900700   2.90502300   0.28790300
C    4.08861000   4.20861400   0.57304000
C    3.67884700   1.65435200   1.00990300
H    0.71204800  -1.12995900  -0.75538600
H    2.36101300  -1.29825000  -1.43636100
H    1.30106200   0.06015200  -1.95419700
H    3.98379400   0.33629500  -0.75442800
H    1.93861800   2.62754000  -1.00353700
H    3.54193000   2.60251900  -1.82263500
H    4.05717600   4.38998200   1.65625200
H    3.50513700   4.95991500   0.02405600
H    5.14324700   4.27146600   0.24027800
H    4.68880700   1.45140900   1.40395700
H    2.95059700   1.61180100   1.84138500