15

C    1.52097700  -0.50606400   0.79506300
C    2.86315500  -0.28620000   0.16004000
C    3.50476900  -1.28875300  -0.54696300
C    3.54785300   0.95378700   0.24707700
C    3.05128000   2.07201400   0.91893900
C    3.74893200   3.26883800   0.98375100
C    4.35243600   4.33084600   1.04961800
H    0.77419000   0.19333900   0.38955300
H    1.57120200  -0.35395600   1.88395000
H    1.15939900  -1.52537900   0.61460800
H    3.05245700  -2.27707800  -0.66637000
H    4.48283600  -1.12424800  -1.00773200
H    4.52384800   1.04436100  -0.23975500
H    2.07803200   2.02912300   1.42140500
H    4.88359600   5.26922700   1.10894300