18

C    0.83707800   0.08945700  -0.32197600
C    2.31631500   0.05980100   0.04430400
N    2.52573500  -0.41905100   1.39733800
C    3.13285700  -0.72340400  -0.95448500
C    3.77502200  -0.19865700  -1.99493300
C    2.84988400   1.40707800   0.50174100
C    4.16837500   1.76869200   0.53911400
H    0.71444600   0.64107300  -1.26324900
H    0.23324900   0.58453900   0.45431400
H    0.46198100  -0.93234000  -0.46980700
H    1.81749400  -0.29525500   2.12071400
H    3.41831300  -0.82558000   1.67733500
H    3.08025000  -1.81056100  -0.82877400
H    3.82103900   0.87959300  -2.17623000
H    4.27380700  -0.84231900  -2.72233200
H    2.09378100   2.09159900   0.90096800
H    4.96382200   1.09602000   0.20741200
H    4.45204800   2.76746000   0.88055600