17

C    2.12849700  -0.62006400  -1.21200400
C    2.38753700   0.07990700  -0.03647100
C    2.86376200   1.45539200  -0.00612000
C    4.44498500   1.27919900   0.06471200
C    5.10108300   2.64725600   0.13302600
C    6.62792600   2.51975200   0.12292500
O    7.22363000   1.49499700   0.00304000
H    1.66657400  -1.61165400  -1.18522400
H    2.35745000  -0.18571100  -2.19119900
H    2.28912800  -0.45442400   0.91699100
H    2.53547400   1.98859700   0.89584600
H    2.60902600   2.02469800  -0.91059600
H    4.80817900   0.73411800  -0.81861500
H    4.71257300   0.68131300   0.94763600
H    4.81745800   3.20768700   1.03916100
H    4.83586800   3.28904600  -0.72461200
H    7.15126400   3.50191200   0.23223500