11

O    0.88999200   0.34060400   0.34266600
N    2.16229600   0.14909100   0.37722900
C    2.84259800   1.27588500   0.17379700
C    4.23888700   1.16445900   0.19388300
C    5.05118400   2.27747600  -0.00703600
C    6.45367700   2.18444000   0.00973000
N    7.61516900   2.10837400   0.02343800
H    0.45984900  -0.52317300   0.49819900
H    2.31237400   2.22283700   0.00286900
H    4.67990900   0.17803000   0.37193200
H    4.61871100   3.26958200  -0.18610800