12

C    0.92841700  -0.07071900  -0.00042200
C    2.42753500  -0.04566400  -0.01149800
O    2.93914500   1.25077800   0.02461300
C    4.31952000   1.50675900   0.02011100
H    0.59492900  -1.11665800  -0.02975400
H    0.51784000   0.44969900  -0.87693100
H    0.53188900   0.39504200   0.91254200
H    2.89016200  -0.54384900  -0.89984600
H    2.90355300  -0.59699600   0.83759700
H    4.45444700   2.59165700   0.05299900
H    4.76467900   1.06066500  -0.89069400
H    4.78081200   1.00466400   0.89296400