16

O    1.02076100   0.03858900   0.14057300
C    2.37687800   0.00896100   0.02654500
C    3.09009800  -1.11383400   0.98582000
N    3.78807300  -0.16310400   1.80632500
C    4.47624900   0.77695700   0.90418000
C    2.99781000   1.24789700   0.71182500
C    2.81406200   0.88235900   2.20988000
H    0.58962100  -0.51578600  -0.52080800
H    2.72946000  -0.13551400  -1.00851800
H    3.77918000  -1.77402000   0.44582000
H    2.33877800  -1.67596000   1.55211900
H    5.02774700   0.31029700   0.07887000
H    5.08871900   1.50287000   1.45312200
H    2.76437200   2.25363700   0.33838600
H    3.26107900   1.60585900   2.90250800
H    1.84882500   0.50281900   2.56349800