16

C    1.00508500  -0.11509400   0.24244700
C    2.48093900   0.09339100  -0.11642100
C    3.24990700   1.16221100   0.73395100
C    4.06661000   0.00715300   1.34295600
N    3.36067000  -0.91511200   0.50228300
C    2.72872700   0.10303900  -1.55541200
C    2.93889400   0.10604600  -2.74528700
H    0.87117100  -0.18391200   1.33090000
H    0.60890100  -1.01730100  -0.24207000
H    0.45063200   0.75749700  -0.13053800
H    2.61727400   1.71491700   1.43779300
H    3.84109200   1.85939700   0.13003700
H    5.15722300  -0.01620100   1.16056500
H    3.91719800  -0.22266000   2.41621500
H    3.52298300  -1.90273100   0.26852500
H    3.11603700   0.11890700  -3.80842400