17

O    0.85401000   0.02833000  -0.42947800
C    2.12485700   0.01259800  -0.04362000
C    3.20668500  -0.73283200  -0.99240100
C    3.22816100   0.70894900  -1.00367000
C    2.36085500   0.01968200   1.38329300
C    1.37532200   0.77352600   2.30926300
C    1.35381600  -0.69113800   2.32013400
H    0.72509400   0.02358000  -1.38758500
H    2.72222000  -1.28192900  -1.80533300
H    3.94465300  -1.29035100  -0.40999000
H    3.98299800   1.25308800  -0.43028500
H    2.76063700   1.25927900  -1.82564800
H    3.41142700   0.00642600   1.67910900
H    0.57026200   1.30336900   1.79443000
H    1.85274200   1.31097400   3.13138000
H    1.81541900  -1.23012300   3.15023700
H    0.53344700  -1.20468800   1.81301200