10

C    0.95453800  -0.23241300  -0.40021100
C    2.04998800   0.13316100   0.40806400
C    2.72076400   1.42849000   0.27423000
C    3.79251200   1.69505200   1.21944100
N    4.64068400   1.89669200   1.97612800
H    0.45653100  -1.19685100  -0.25455800
H    0.57771000   0.43478200  -1.18456100
H    2.41155200  -0.58603200   1.15579400
H    1.96480600   2.24787700   0.28681500
H    3.10146800   1.50538800  -0.77508200