15

C    1.79391800  -0.42051000  -1.24595600
C    2.90724600  -0.08290000  -0.26481900
C    3.20420500   1.33855800  -0.06622800
C    2.57582600   2.48894500  -0.68240500
N    3.18139600   3.53672500  -0.19059000
N    4.18235500   3.23730700   0.71839800
C    4.20378200   1.94532300   0.79873700
H    1.66820800  -1.50873500  -1.30659100
H    2.02432400  -0.05999900  -2.25906400
H    0.83079600   0.00352700  -0.92652800
H    3.86426800  -0.57257200  -0.54438400
H    2.71246900  -0.51132400   0.74139700
H    1.76567000   2.54623700  -1.40933900
H    2.99943700   4.51884500  -0.39973600
H    4.91070300   1.43677700   1.45490000