10

O    1.05735700   0.02700900  -0.14659500
C    2.31822500  -0.15881700   0.06773900
C    3.15595800  -0.67925500  -1.03115300
C    3.44475400   0.76314000  -1.16051300
H    0.58171200   0.41525400   0.60747200
H    2.72749000   0.01093800   1.07230700
H    2.56889200  -1.11819700  -1.84660400
H    3.99614100  -1.29263400  -0.68268300
H    4.28321400   1.22673600  -0.63201400
H    2.83550800   1.38781600  -1.82067400