16

N    3.17124800  -0.76300400  -0.72988200
C    2.23860000   0.02895000  -0.03634500
C    2.70532900   1.49160500  -0.02237900
O    4.08903900   1.43273500  -0.13396200
C    4.80054800   2.65173100   0.08024900
C    6.22301100   2.41425500  -0.11795100
C    7.40611100   2.24016600  -0.27928400
H    2.95972900  -1.70213800  -1.07602300
H    4.12184600  -0.35944700  -0.81020800
H    2.22189100  -0.36776600   1.01190700
H    1.21602200  -0.13502400  -0.41562800
H    2.37192400   1.98630500   0.90615600
H    2.24648400   2.02611400  -0.87635900
H    4.60890400   3.01278700   1.10665800
H    4.43824200   3.41961500  -0.62620600
H    8.46283700   2.09325800  -0.42040100