17

C    4.15764300  -0.82693900   0.27589500
O    3.76829700   0.28825900   1.06781500
C    3.37598800   1.42976400   0.50242100
C    2.55420100   2.30258500   1.41248700
C    4.82369800   2.29347100   0.18464800
C    5.39062900   2.20507500  -1.15833300
O    4.63021500   3.32437500  -0.63609600
H    3.83215200  -1.72425400   0.81666000
H    5.25756300  -0.83600500   0.20848700
H    3.70158600  -0.78294800  -0.72330200
H    2.97634800   1.30009200  -0.52049400
H    3.02575300   2.41352300   2.39842100
H    1.57331500   1.82135900   1.54940500
H    2.40234900   3.28818300   0.95446200
H    5.31788000   2.43559400   1.15604700
H    4.87106900   1.62629000  -1.92820900
H    6.44698800   2.42889600  -1.33123500