21

C    0.97481500  -0.13487200  -0.16857400
C    2.42517000   0.15283200   0.18639700
C    2.97184300   1.50715300  -0.01802300
C    2.11846300   2.61232000  -0.26566200
C    4.44215200   1.69961200   0.00772400
C    4.87268700   1.71988800  -1.49262100
C    4.92799300   2.94821900   0.74978500
H    0.75612500  -1.19331200   0.02165400
H    0.77348300   0.05843900  -1.23206000
H    0.27093400   0.45187200   0.43904900
H    3.12329300  -0.56377300  -0.28550200
H    2.61614500  -0.02501900   1.27148300
H    1.03414200   2.52526700  -0.15662500
H    2.52457800   3.58108000  -0.56940800
H    4.89267200   0.80256100   0.46027300
H    4.48008600   2.60196300  -2.01911000
H    4.56082600   0.81275600  -2.02798700
H    5.97098900   1.77267000  -1.51177700
H    4.60501800   3.88179000   0.26530800
H    6.02662100   2.95184900   0.75470700
H    4.58672900   2.95545600   1.79432000