17

C    2.89631900   0.01829900   1.33457000
O    2.95266500   0.69616200   0.08529400
C    3.22546200   2.00698600   0.00372900
C    2.85238000   2.53859600  -1.36098100
C    2.90105400   2.88910900   1.19002200
C    5.00499100   1.92717500  -0.02271600
O    5.58361100   1.62130700   0.93808500
H    2.72401200  -1.03635400   1.10045900
H    2.07848600   0.41806400   1.95109100
H    3.85621700   0.13849100   1.86845600
H    3.14225800   1.83603600  -2.15400000
H    3.30365500   3.52386100  -1.54037000
H    1.75821500   2.65301600  -1.39007200
H    3.33994600   2.53396500   2.13036500
H    1.80345800   2.91427500   1.29404900
H    3.24295200   3.91560700   1.00381200
H    5.39723800   2.15395400  -1.04129600