20

C    0.73162300   2.10478700  -0.72418600
C    2.05510100   1.96602000  -1.45435100
N    3.15359900   1.68778400  -0.58121500
C    4.39179100   1.08496200  -0.95473000
C    5.48381600   1.54327700   0.01554700
O    4.87687600   1.58482300   1.26880600
C    5.73833400   1.89341700   2.34903000
H   -0.05306600   2.35974300  -1.44788200
H    0.76844200   2.90737100   0.02654600
H    0.44857600   1.16343800  -0.23341500
H    2.32036000   2.90937700  -1.98229600
H    2.04207500   1.19116700  -2.24045100
H    3.11330300   1.91262400   0.42825400
H    4.61686000   1.28597400  -2.01305400
H    4.24047200  -0.01200600  -0.85529800
H    5.86457300   2.53819700  -0.28620600
H    6.32794700   0.83259100  -0.02359900
H    5.12835400   1.89861800   3.25920100
H    6.20221500   2.88502000   2.21462000
H    6.52931000   1.13199200   2.44813000