15

O    0.63061900   0.28938100   0.69063700
C    1.53766200   0.90504800  -0.07620700
C    2.86916800   1.03923900   0.46630200
O    3.77615500  -0.24365500   0.30416100
C    3.29436800  -1.39784500   0.38782300
C    4.11481200  -2.57208400   0.30041400
C    5.45010900  -2.49496900   0.12447800
H   -0.25062700   0.31767700   0.29573600
H    1.26830300   1.24002400  -1.08072900
H    2.89567200   1.18381400   1.55449000
H    3.48373700   1.77708200  -0.05580900
H    2.20686900  -1.50239600   0.53643400
H    3.60155200  -3.53208800   0.38616100
H    5.96103000  -1.53145500   0.03956600
H    6.06014300  -3.39948800   0.06284300