18

C    0.99493300  -0.27562400  -0.02549700
C    2.48973400  -0.09199500   0.02400500
C    3.02912400   1.50913700   0.02263200
C    2.45966300   2.19720800  -1.23268800
N    2.52783500   2.05678000   1.20370300
C    4.48115900   1.42698600   0.04144900
C    5.68628200   1.34379800   0.03195300
H    0.80352300  -1.35948200  -0.07342300
H    0.53549100   0.16663400  -0.91920200
H    0.48253100   0.09474600   0.87356400
H    2.99935300  -0.46651100  -0.87588200
H    2.94925400  -0.54809000   0.91058600
H    2.73822400   1.61936000  -2.12218300
H    2.89106200   3.20385700  -1.31332000
H    1.36522900   2.27523600  -1.18361800
H    3.08510200   2.07134400   2.05958400
H    1.55201300   2.34954200   1.26687700
H    6.76218100   1.27816500   0.02079000