14

C    0.90768100  -0.16410900  -0.08750600
C    2.28402700  -0.72490400  -0.10795900
C    2.68592300  -1.97626600  -0.37549900
O    3.22087800   0.22839000   0.30067100
C    4.43304500   0.27791600  -0.10937800
N    5.18841300   1.20354500   0.46946400
O    6.40013900   1.15387900  -0.00434100
H    0.81289600   0.66170500  -0.80829600
H    0.67349100   0.22882700   0.91328000
H    0.18144200  -0.94448400  -0.34105000
H    1.94265800  -2.71697600  -0.67348600
H    3.71621600  -2.31841200  -0.25639200
H    4.79969000  -0.38576900  -0.90739400
H    6.90219300   1.86741000   0.43239600