17

N    2.91156600  -1.34889400  -1.16566200
C    2.57543000  -0.55369500  -0.01191600
C    3.04614900   0.86805600  -0.19601500
N    3.61457500   1.15179800  -1.30518900
C    2.37317300   3.98434900  -0.10238100
O    3.32321400   3.15547400   0.42810300
C    2.89980800   1.91162100   0.86882100
H    2.10006700  -1.76154500  -1.61689200
H    3.57247800  -2.09297100  -0.95956700
H    3.01536100  -0.92690900   0.92954300
H    1.48885100  -0.50586200   0.17738000
H    3.95977800   2.09335800  -1.49705000
H    3.68996700   0.35668600  -1.96434100
H    1.35073500   3.88889300   0.28057400
H    2.77529100   4.95043000  -0.40724400
H    3.53399600   1.59897000   1.71747800
H    1.85564300   1.90996200   1.23443700