17

C    1.06674200   0.14446800   0.42176800
C    2.32907500  -0.01052600  -0.20842000
C    3.04271600  -1.31875100  -0.25680500
C    4.23652700  -1.33515900  -1.20727400
C    5.00430300  -0.02322300  -1.08096700
C    4.10001500   1.13934000  -1.41097100
O    2.81452600   1.06345600  -0.70794900
H    0.59372600   1.12928300   0.44567000
H    0.57233600  -0.71376900   0.88117600
H    2.30397800  -2.10528700  -0.48067800
H    3.35997500  -1.51775900   0.78606700
H    4.87856900  -2.19387600  -0.97389300
H    3.88832000  -1.47269900  -2.24336500
H    5.41336100   0.09151000  -0.06404300
H    5.85925400   0.00952100  -1.77106400
H    4.49809200   2.11694500  -1.11494500
H    3.82224300   1.18074800  -2.47467400