12

N    0.95633400   0.09180600  -0.00357500
C    2.27678100   0.03282300   0.00260200
C    3.17831700   1.11062200   0.00562000
C    4.49851000   0.66842100   0.01197000
O    5.60007200   1.37790400   0.01618200
C    4.61006600  -0.75634100   0.01395200
S    3.09421200  -1.53281600   0.00840600
H    0.47812000   0.98783400  -0.00797600
H    0.37679100  -0.74202100  -0.00395000
H    2.86445400   2.15455600   0.00399900
H    5.43655400   2.33053400   0.01408100
H    5.54588300  -1.31669500   0.01904000