18

C    2.85359200  -1.08874000  -1.31644700
C    2.63676900  -0.44491500   0.01687100
C    1.89706500  -1.00602600   0.99578200
C    3.28907500   0.87723300   0.24281400
C    4.84467300   0.75230000   0.29485400
C    5.60523400   1.02735400  -1.01687600
N    5.63046500   1.88576900   0.11128800
H    2.59748700  -0.40183400  -2.13984900
H    2.26434900  -2.00674400  -1.43205500
H    3.91911800  -1.35781200  -1.44506600
H    1.36941200  -1.94945900   0.83502500
H    1.77559600  -0.52792500   1.97140500
H    2.99281500   1.31861700   1.20663900
H    3.04617300   1.58800800  -0.56236900
H    5.20294700   0.03794600   1.04635400
H    4.95781700   1.32983100  -1.84925700
H    6.54405800   0.53418300  -1.29022000
H    6.44447000   2.17279300   0.66085900