8

C    0.92497900   0.01315400  -0.00000000
C    2.33398200   0.00815000  -0.00000000
C    3.04344300  -1.21372600  -0.00000000
N    3.60926100  -2.23362900  -0.00000000
C    3.05190800   1.22493500   0.00000000
N    3.62454800   2.24095300   0.00000000
H    0.37727600   0.96285600   0.00000000
H    0.37001600  -0.93232400  -0.00000000