11

O    1.63206400  -0.48006000   0.85326600
C    2.15619400  -0.01862000  -0.08651500
C    3.04022400   1.34188600   0.06006900
C    4.41080300   1.00254900   0.03513700
C    5.58676600   0.63136200   0.02873700
C    7.04598300   0.47947700   0.02121200
O    7.61531400   1.53350900  -0.01495400
H    2.10817300  -0.41628500  -1.12586300
H    2.73549200   1.80206100   1.01227000
H    2.73992900   1.95175300  -0.80929400
H    7.52590900  -0.51693500   0.04815500