15

C    1.58411900   0.46143900  -1.37223000
C    2.26240600  -0.13078800  -0.37552800
C    3.07916800   0.61318400   0.62623500
C    4.55911500   0.38545500   0.25622500
C    5.56633300   0.31070300   1.45907700
N    5.22502900  -0.78381400   0.64372600
H    0.96265100  -0.12277500  -2.05514300
H    1.60622500   1.54549100  -1.52190600
H    2.24268900  -1.22179600  -0.27501100
H    2.90567800   0.25208800   1.65024900
H    2.89329500   1.69561800   0.59751900
H    4.84702100   0.79313300  -0.71967800
H    5.04230000   0.40581500   2.41774200
H    6.59839600   0.67441900   1.42547700
H    5.89413500  -1.28569400   0.05340400