18

C    0.62427500  -0.47352800   0.13253800
C    1.99131000   0.09485800   0.08444300
N    2.32598200   1.10122400   0.81579800
C    3.02526500  -0.52846900  -0.82447600
C    3.83967300   0.44127400  -1.62945800
C    5.08930400   1.05459400  -1.10764400
O    4.93408200   1.32726700   0.27861200
H    0.16462400  -0.36665600  -0.86334200
H   -0.01755700   0.00008900   0.88579600
H    0.69171100  -1.55521700   0.32857900
H    3.31110200   1.44756200   0.77375900
H    1.65838400   1.53399400   1.45074300
H    2.51208700  -1.24239700  -1.48296100
H    3.67516900  -1.12678400  -0.15491100
H    3.58198100   0.59053500  -2.67996700
H    5.32072600   1.97263600  -1.67464400
H    5.94037400   0.35747100  -1.25674400
H    5.76642100   1.61617300   0.66797400