14

N    1.09256900   0.10032600  -0.57761700
C    2.23918700  -0.02647100  -0.54666800
C    3.69387500  -0.15258000  -0.46939900
C    4.25175000   0.80786800   0.58681500
C    5.76116700   0.76027300   0.72014700
C    6.50529500   1.06715200   1.94553200
O    6.24221100  -0.29702500   1.57266400
H    4.12095200   0.05945500  -1.46249600
H    3.94038600  -1.19761200  -0.22211700
H    3.78710100   0.64078000   1.57024900
H    4.05009700   1.85881400   0.30734500
H    6.32722500   0.76461400  -0.22794300
H    6.01501900   1.32174400   2.89726300
H    7.57972100   1.30413900   1.89194300