18

C    0.95855100   0.05898100  -0.10667900
C    2.41711000  -0.17201900   0.08229800
O    2.80378300  -0.16986600   1.34313700
C    3.32720900  -0.61366100  -1.00473700
C    3.41689000   0.87298400  -1.03907800
C    4.53810400   1.65355300  -0.42914700
N    5.44517500   1.85499300  -1.52408200
H    0.69741900   0.21653800  -1.15909300
H    0.61912600   0.90968400   0.50052800
H    0.42942200  -0.83854900   0.25615700
H    3.66932900  -0.57706900   1.48509200
H    2.84029000  -1.09452100  -1.85974800
H    4.22898500  -1.14059900  -0.66611100
H    2.76578100   1.40772600  -1.73750500
H    5.03345600   1.11098000   0.39056500
H    4.20454300   2.62074300  -0.03189300
H    5.87468800   1.03595300  -1.94183200
H    5.22229500   2.58310500  -2.19528800