14

C    0.90050100   0.08718100  -0.00822400
C    2.38576300   0.04522200   0.00056100
C    3.27227400   1.07372800   0.00607100
C    4.63902100   0.62763000   0.01310600
N    5.69996400   1.42242200   0.01938500
C    4.73329900  -0.79982500   0.01255800
S    3.21727200  -1.52539100   0.00382400
H    0.54973800   1.12644600  -0.00332700
H    0.48877300  -0.42816600   0.87339500
H    0.50031200  -0.41560900  -0.90241000
H    2.97746000   2.12333100   0.00538300
H    5.59772300   2.43294700   0.01946300
H    6.64517700   1.05153700   0.02411600
H    5.65261400  -1.38720600   0.01722900