16

C    1.89473100   0.15906400  -0.81450400
N    1.78886700  -0.14039300   0.56301400
C    0.55011900   0.05022700  -0.05764700
C   -0.35044700   1.26752200   0.18085200
C   -1.72148500   0.68824100  -0.20764300
O   -1.64989400  -0.66673100   0.18685000
C   -0.41686600  -1.14272900  -0.17078700
H    2.18156200   1.18693700  -1.06755900
H    2.27656500  -0.62868900  -1.47505600
H    2.13697700  -0.96595700   1.06260000
H   -0.30520400   1.51008200   1.25333700
H   -0.06358000   2.15213300  -0.40024900
H   -2.56027000   1.16106700   0.31510500
H   -1.88196700   0.76665400  -1.29817700
H   -0.35482900  -1.43241800  -1.24811300
H   -0.15409900  -2.02539000   0.43298700