11

C    1.06654600  -0.06298800   0.08147300
C    2.41543400   0.04299900  -0.09996100
O    3.15982300  -1.01505600  -0.44802700
C    4.43378900  -0.57580900  -0.54568500
N    4.60615800   0.67804200  -0.29332600
C    3.35872400   1.16900200   0.00718500
N    3.16403700   2.41831300   0.31579000
H    0.47409800   0.80981500   0.36624000
H    0.56300700  -1.02450600  -0.05619000
H    5.18403100  -1.31831600  -0.82535300
H    2.17995100   2.63596200   0.51285500