19

C    0.94770500   0.07276900   0.05410600
C    2.46229700   0.03668300  -0.03735500
C    3.02544500  -1.38989200  -0.56575300
C    2.68599600  -1.55182400  -2.03013600
C    3.18312900  -0.39029900  -2.86889100
C    2.64107200   0.95293100  -2.24344800
O    3.05231300   0.92995000  -0.91574000
H    0.62061100   1.09731700   0.28513300
H    0.64456600  -0.57384100   0.88821100
H    0.43263700  -0.27650400  -0.84894800
H    2.94566900   0.21752400   0.93281800
H    2.54899800  -2.12970100   0.09425500
H    4.10949000  -1.39352400  -0.38773200
H    3.19985100  -2.46809200  -2.38150000
H    1.61020300  -1.72315100  -2.18226600
H    4.28111900  -0.33680200  -2.88517400
H    2.82000300  -0.41227500  -3.90664200
H    3.12781800   1.81223300  -2.72082100
H    1.54612000   0.99485100  -2.33340800