14

C    1.35232800  -0.36467900  -0.09006700
O    2.71375700   0.05516400  -0.13743400
C    2.96122500   1.37174100   0.02535900
C    4.36050700   1.75304600  -0.03124400
C    5.38449400   0.82992000  -0.23911200
C    6.72607300   1.22755300  -0.28881400
N    7.84426300   1.56138300  -0.32989700
H    1.35707500  -1.44837100  -0.24158100
H    0.77192800   0.11869900  -0.89159300
H    0.91072600  -0.12998900   0.89119700
H    2.55640100   1.79831300   0.98751600
H    2.42314800   2.03366400  -0.71207800
H    4.59697900   2.81536800   0.09743100
H    5.14593700  -0.23302400  -0.36778300