17

C    0.98405600   0.02372200  -0.51699200
C    2.23378500   0.13215400   0.27982600
C    3.50294100   0.73736800  -0.12173500
C    3.64649300   1.18646700  -1.57100600
C    3.71680900  -0.08267700  -2.34849400
C    3.75493000  -1.18556400  -1.51579000
C    3.66667000  -0.78209200  -0.16061400
H    0.31941100   0.83551000  -0.17285500
H    0.46109400  -0.92041000  -0.30981100
H    1.12692400   0.12898400  -1.59903400
H    2.11849100  -0.03664200   1.35593300
H    4.06656300   1.25765600   0.66096900
H    4.59263600   1.74384400  -1.70731600
H    2.85122400   1.86442800  -1.92038300
H    3.76431800  -0.12173000  -3.43917000
H    3.88228600  -2.21819500  -1.84395500
H    3.95108300  -1.41508400   0.68178100