19

C    1.64209400   1.53722900   1.03041800
C    2.65377300   0.81396700   0.17275400
O    3.24859500   1.70814300  -0.76312700
C    4.63115500   1.68711000  -0.97786400
C    5.04101500   2.75468700   0.02330100
C    6.16998000   3.74490000  -0.42005600
C    4.80280800   4.24045600  -0.22687800
H    1.13080600   0.80405600   1.66882600
H    0.88953300   2.04372100   0.41185100
H    2.13651000   2.27667300   1.67596700
H    2.15907000   0.06074500  -0.47514000
H    3.44089200   0.29794800   0.74581500
H    4.80907100   2.00701400  -2.01295600
H    5.07586900   0.70269200  -0.77480500
H    5.01949600   2.41982200   1.06399700
H    6.55909800   3.60936200  -1.43159700
H    6.92403500   3.89108600   0.35873100
H    4.56807200   4.83492600   0.65815200
H    4.21727100   4.48041600  -1.11980900