18

C    0.88406400  -0.28676600  -0.14806400
C    2.37932600  -0.18957000  -0.22206100
O    2.95519700  -0.11922500  -1.52235200
C    3.06783400   1.01262500  -0.72013900
C    4.51254700   1.30372500  -0.35920900
C    4.52682400   2.25804900   0.92366400
N    5.85204000   2.53574100   1.26009100
H    0.53788200  -0.05435400   0.86934900
H    0.56280200  -1.30887500  -0.39189100
H    0.40610400   0.40431800  -0.85558000
H    2.93916600  -0.84499700   0.45998300
H    2.47690200   1.88768700  -1.02852800
H    5.02699600   1.81382200  -1.18657700
H    5.04336000   0.36908700  -0.13078800
H    4.01771000   1.74105700   1.74728500
H    3.99837700   3.18131200   0.63830800
H    6.37090700   1.95579900   1.92283300
H    6.39415700   3.23755600   0.75132600