14

C    1.03682400   0.02360500   0.52995800
N    2.32098400   0.04530700  -0.07055700
C    3.31259300   1.07303900  -0.29086400
C    4.33179500   0.01719800  -0.79386700
O    4.74182200   0.23120300  -2.07739400
C    3.18465800  -1.01872600  -0.61584600
O    2.89600000  -2.14322500  -0.80648900
H    0.58741300  -0.96815700   0.39234600
H    0.41352300   0.81938300   0.08414300
H    1.13038500   0.25843300   1.60852100
H    3.55577400   1.64380000   0.62217100
H    2.98658900   1.78162000  -1.07731900
H    5.14273800  -0.17153600  -0.06827500
H    5.57010800  -0.22364400  -2.26797800