17

C    1.80673000  -0.51683600   0.04937600
N    2.50597500   0.38902300  -0.81565400
C    2.96652300   1.70225400  -0.44180300
C    4.34729600   1.40063200   0.09838200
C    5.47029300   1.55815700  -0.63357000
C    6.84923600   1.31442600  -0.14002600
H    2.45910500  -1.35936300   0.33739500
H    0.94962800  -0.94104700  -0.50064900
H    1.45368200   0.00921100   0.94379400
H    2.86195700   0.01313700  -1.69785600
H    2.29434300   2.13493800   0.31036900
H    2.99928000   2.34885200  -1.32917900
H    4.39196000   0.99658500   1.11529300
H    5.37780400   1.92807000  -1.66371500
H    6.86943900   0.95024000   0.89512900
H    7.44098000   2.24133900  -0.20645900
H    7.35501500   0.58266500  -0.79129400