15

C    1.01128800   0.00879600   0.11056000
C    2.48396600  -0.00163500  -0.02082800
C    3.26042100  -1.12617800  -0.10877900
C    4.62943500  -0.72706100  -0.22514300
O    5.61868300  -1.43666500  -0.32528400
C    4.75395600   0.80618800  -0.21198300
C    3.29496000   1.25224800  -0.07268200
H    0.58342500  -0.99974400   0.13799300
H    0.57144900   0.56922700  -0.73072800
H    0.72682400   0.55197100   1.02657100
H    2.94464600  -2.16870100  -0.09730800
H    5.24597400   1.11891600  -1.14544600
H    5.40701400   1.09116200   0.62675700
H    2.97297000   1.88065200  -0.91890700
H    3.13161900   1.85018200   0.83862600