18

C    0.88827000   0.08811300   0.14423400
C    2.39937400  -0.08612700   0.06346600
N    3.18389900   0.89754800   0.78117800
C    3.96614800  -0.05179800   1.51949300
C    3.12548600  -1.18263500   0.89000200
C    3.92023700  -2.24425500   0.15489300
O    4.78718500  -2.78016200   1.10571600
H    0.42127900  -0.76901700  -0.35993200
H    0.56284100   1.00408600  -0.36798100
H    0.54771200   0.10848300   1.18836800
H    2.71629900  -0.06853600  -1.00145400
H    3.11746400   1.92082000   0.83180600
H    5.03847100  -0.02252500   1.23886000
H    3.91917900   0.11391800   2.61160100
H    2.45879200  -1.64568600   1.63149900
H    4.46381100  -1.77750600  -0.69284400
H    3.22559400  -2.99141300  -0.27160500
H    5.27536800  -3.52198600   0.73581700