17

N    1.11880700   0.04479300  -0.17618600
C    2.49891800  -0.00337800  -0.08172300
C    3.03671700   1.15768600   0.93810500
C    4.44089100   0.62842100   1.19439800
C    4.25637500  -0.87033900   1.43664300
C    3.08407000  -1.29686900   0.52659100
H    0.52700200  -0.40690500   0.52518600
H    0.64189500   0.60107200  -0.88844400
H    2.93708700   0.26913900  -1.05400100
H    2.40987400   1.13357000   1.84179100
H    2.96385500   2.14176000   0.45761700
H    5.07739500   0.81950100   0.31710600
H    4.88846100   1.15873400   2.04870500
H    5.16836400  -1.44305300   1.22539600
H    3.99955600  -1.05564200   2.48910300
H    3.38793600  -1.95083000  -0.30413700
H    2.31153600  -1.84666000   1.08691500