13

C   -1.60574900   0.73082000   0.34793900
C   -1.19269600  -0.62309700  -0.26884200
C   -0.24147000  -1.52447600   0.37408900
C    1.04564000  -1.14032500   0.57713800
C    1.50227700   0.10339300  -0.00091400
N    0.66508200   0.96267500  -0.49202600
N   -0.59465200   0.66653600  -0.64434800
H   -2.57951200   1.10435300   0.01857600
H   -1.28459900   0.98627300   1.36362400
H   -1.92927700  -1.05533400  -0.95548300
H   -0.56880800  -2.54090100   0.60905300
H    1.76761300  -1.79106700   1.07285800
H    2.56244200   0.36948200  -0.03765500