13

C    0.93235600  -0.11001400   0.03748400
C    2.42347300   0.01975900   0.17528000
O    3.05456200  -1.02128700   0.42174000
C    3.13598700   1.21497200   0.05060100
C    3.74837100   2.26777500  -0.02751000
C    4.45097600   3.55645400  -0.10386700
O    3.60494300   4.62885000  -0.30528700
H    0.48347000   0.55441300   0.79336000
H    0.60123500  -1.14596200   0.17968000
H    0.67014800   0.25253200  -0.96928800
H    5.25653100   3.44533500  -0.85550600
H    4.96552900   3.67335000   0.86843600
H    3.50964600   4.81295400  -1.24564200