17

N    1.68270600  -0.31263600  -1.30201400
C    2.67153500  -0.08657700  -0.29810100
C    3.14888900   1.31398800  -0.29983100
C    4.38723300   1.71874000   0.15953500
C    4.78098000   3.08773300   0.16920500
C    5.32007000   3.61102200   1.61141100
N    6.14663400   3.44642900   0.49192400
H    1.11220800  -1.13422500  -1.13220100
H    2.06055100  -0.35277500  -2.24399300
H    3.54398500  -0.77894100  -0.29523700
H    2.21527300  -0.23143400   0.70617700
H    2.44800000   2.05741400  -0.70039300
H    5.09347500   0.98428100   0.56485200
H    4.16542800   3.80832700  -0.38018300
H    5.34702800   2.83264700   2.37902200
H    4.97728400   4.60388300   1.92457500
H    6.40778900   4.33225200   0.05521100