12

O    0.98099200  -0.06018000  -0.00578800
C    2.35339400  -0.01115100  -0.00109400
C    2.84796300   1.34316200  -0.00039400
C    3.29233800   2.49820800   0.00038900
C    3.77956800   3.78984600   0.00157400
C    2.92534000   4.87704400  -0.00107400
H    0.68561300  -0.97791100  -0.00612100
H    2.84016200  -0.50044500  -0.87924200
H    2.83423500  -0.49931200   0.88095800
H    4.86613700   3.93470700   0.00458700
H    1.83938600   4.74434200  -0.00413700
H    3.32551000   5.89464000  -0.00019700