16

C    1.39225800   0.09805800   0.85836200
N    2.05450900  -0.04794700  -0.40541200
C    2.38055300  -1.33884600  -0.98449600
C    3.14373300  -0.99880100  -2.24284800
O    4.27923200  -0.21975200  -1.95995900
C    3.13567600   0.45925100  -2.41552000
C    2.36721300   1.07546400  -1.27041200
H    1.65014900   1.06424300   1.31099200
H    1.66001800  -0.73285100   1.52378600
H    0.29835500   0.07196600   0.68872600
H    1.44109100  -1.89465300  -1.16696400
H    2.97378800  -1.92119600  -0.25733000
H    3.20574500  -1.71996900  -3.06233100
H    3.19088000   0.96969700  -3.38085800
H    2.95313100   1.81797600  -0.70014500
H    1.42198600   1.56301100  -1.57643700