14

O    1.07517600   0.76154600  -0.60107400
C    1.86812300   1.19348800   0.14431600
C    3.39376500   1.01571800   0.07542200
C    3.80268800  -0.12018900  -0.89237800
C    4.14003600  -1.23271200   0.02221300
N    4.21528400  -0.84544400   1.24296200
C    3.96375900   0.59411700   1.44312700
H    3.78936900   1.99414000  -0.23288000
H    4.69699400   0.11605400  -1.49746600
H    3.00942600  -0.40097800  -1.60396000
H    4.32940400  -2.27500100  -0.25432800
H    4.46249200  -1.46758400   2.01493900
H    4.91737100   1.08190300   1.69287400
H    3.26405500   0.74060200   2.27806100