15

C    1.00960300  -0.07716900   0.06276100
C    2.49998300   0.09802900   0.01302300
C    3.11401800   1.21490000   0.84980100
C    4.49527300   0.68611100   1.26066000
C    4.17965800  -0.80727900   1.26715700
O    4.92426200  -1.59681400   1.86518300
O    3.14516900  -1.13374200   0.62177100
H    0.69804800  -0.96363600  -0.50446100
H    0.54491500   0.80401000  -0.40346300
H    0.64846100  -0.15669800   1.09743900
H    2.87840900   0.09328000  -1.01996600
H    2.49861000   1.41540900   1.73887000
H    3.21350900   2.14875000   0.27817600
H    5.27840800   0.81925900   0.49384000
H    4.88437700   1.04108900   2.22388500