20

C    2.19889400  -0.71386300  -1.36297200
N    2.42276300   0.08069800  -0.18731800
C    3.23016300   1.21219500  -0.12469800
C    2.45426800   2.61255900  -0.43512000
C    3.25898500   3.23319300   0.72310800
C    4.45801300   4.05808200   0.28477000
C    3.60685900   1.81285100   1.23413700
H    1.15133800  -0.60368000  -1.69285800
H    2.35832200  -1.77703800  -1.11894700
H    2.87949300  -0.40510000  -2.16431600
H    1.85613400  -0.13719200   0.63684800
H    4.05731400   1.12228300  -0.84413800
H    1.37964300   2.51167200  -0.23409300
H    2.62255700   2.96749600  -1.46087700
H    2.63058400   3.81008200   1.41570100
H    5.10679900   3.50353600  -0.41253600
H    5.06742100   4.33992000   1.15539000
H    4.13549200   4.98226400  -0.21531900
H    4.64644300   1.63303300   1.54249800
H    2.93209400   1.47157800   2.03363900