20

C    1.12491200   0.22319700   0.10029900
C    2.62363200  -0.07911700   0.01872000
C    3.09233800  -0.89141600   1.22334400
C    2.96058600  -0.82653000  -1.29222900
C    3.37182600   1.26279800  -0.13557000
C    3.83135200   2.01319400   1.18584900
N    4.70552800   1.45017100   0.25120200
H    0.77425300   0.79979700  -0.76859800
H    0.87456400   0.78176300   1.01450100
H    0.56291900  -0.72105200   0.12157300
H    2.79243300  -0.44439700   2.18442400
H    4.18205300  -1.04781300   1.22502200
H    2.61387800  -1.88010900   1.18855700
H    2.64031600  -0.26378300  -2.18124700
H    2.42047800  -1.78476000  -1.29232300
H    4.03603100  -1.04295400  -1.37216300
H    3.08480300   1.82142300  -1.03576100
H    3.56506800   1.40097800   2.05585600
H    3.86549200   3.09775000   1.33063500
H    5.40311800   1.98001800  -0.28089200