14

O    2.07174900  -0.00055600  -1.34255600
C    2.22729900   0.03112200   0.03790500
C    3.25626400   1.15747100   0.27941900
N    2.94686600   2.35523400  -0.45695600
C    2.90719600   3.27436600   0.65778900
C    3.21701100   2.04382400   1.55277300
O    3.34470300   1.85586500   2.70646400
H    1.65960100  -0.82358400  -1.62839200
H    2.63275500  -0.89665300   0.47331300
H    1.29278300   0.28646700   0.57085300
H    4.26616400   0.78610000   0.00505500
H    2.70655600   2.44675400  -1.45092800
H    3.67210500   4.07259500   0.59956900
H    1.91792400   3.75392600   0.78948000