16

C    1.27908200  -0.48413600  -0.04867400
C    2.81519000  -0.28166400   0.07978900
C    3.02955000   1.18410500  -0.04834100
C    4.83624000   1.54561200   0.08244300
O    4.95629500   2.83159600  -0.19100300
C    5.22750300   1.08092600   1.39100800
N    5.51093700   0.71933200   2.45346000
H    1.09503600  -1.56509400   0.04312500
H    0.90024200  -0.14916800  -1.02334700
H    0.73031900   0.02867800   0.75234900
H    3.32130700  -0.84095700  -0.72025700
H    3.15022500  -0.66267500   1.05489400
H    2.65745100   1.80930000   0.77563400
H    2.84004800   1.62718600  -1.03495800
H    5.13269500   0.91133300  -0.76738900
H    5.03919100   3.39974200   0.59635600