16

C    0.93016800  -0.03234500  -0.14679400
C    2.38400900  -0.19415400   0.04682500
C    3.34834200  -0.56843000  -1.02874000
C    3.69057200   0.86923500  -1.11839900
C    2.98206300   1.83472600  -1.98796600
O    4.68287300   1.36697300  -0.44586400
H    0.56721400   0.92285800   0.26659900
H    0.41892300  -0.82059500   0.43761900
H    0.61573900  -0.13150200  -1.19378600
H    2.78761700  -0.08020500   1.05901800
H    2.87171000  -0.95675600  -1.93741100
H    4.17969900  -1.20714900  -0.69727000
H    2.02318200   1.44878900  -2.34847100
H    3.63193500   2.01917200  -2.86201000
H    2.84846300   2.79733000  -1.47457300
H    5.22854500   0.70544000   0.00790000