17

C    3.04798300   0.57737800  -1.93193200
C    2.72036700  -0.12546300  -0.61961600
C    3.34338300   0.52557300   0.61360600
C    4.85649100   0.47896500   0.61444500
C    5.57366900   1.78159700  -0.03291400
N    5.63839300   1.41171700   1.30885600
H    2.50695400   0.11059200  -2.76576800
H    4.12193700   0.51665800  -2.17657500
H    2.75732500   1.63996000  -1.90901300
H    3.02302100  -1.18416500  -0.66799200
H    1.63144700  -0.13280800  -0.46145800
H    3.05715400  -0.02954800   1.52544600
H    3.00007700   1.56357300   0.74495000
H    5.30338500  -0.52058100   0.53195500
H    4.78310000   2.47526700  -0.33975400
H    6.50389200   1.79354800  -0.61047400
H    6.52077600   1.16835300   1.77103000