15

C    0.89914300  -0.04637900   0.25917000
C    2.35281700   0.20840400  -0.03384500
C    3.17916800   1.19750300   0.81763700
C    4.10696500   0.01340400   1.08168000
O    3.25295900  -0.89948300   0.36230400
C    2.75522100   0.13994300  -1.43376300
C    3.16737300  -0.02048200  -2.57337300
H    0.74889000  -0.16626300   1.34033900
H    0.54004300  -0.93890700  -0.26941300
H    0.32483800   0.82751900  -0.08281800
H    2.63571900   1.55688000   1.70001800
H    3.61198300   2.04512000   0.27454300
H    5.11846200   0.02070400   0.64385200
H    4.18599200  -0.37107700   2.11514600
H    3.50562900  -0.13879700  -3.59300800