15

C    0.92568500  -0.00122100  -0.09004400
C    2.46317700  -0.01884900  -0.01009400
C    3.13141100  -1.22628500  -0.55467300
C    4.09227500  -0.84454700  -1.48850500
N    4.10284300   0.48634800  -1.60845800
C    3.13459600   1.10989000  -0.76583000
N    2.87050600   2.33592000  -0.67035300
H    0.56380000   0.95826200   0.30078800
H    0.50470000  -0.81313800   0.51672200
H    0.58319400  -0.11236900  -1.12767400
H    2.74627200   0.07617900   1.05930300
H    2.91636000  -2.25702600  -0.27068300
H    4.76664500  -1.47557900  -2.06931100
H    4.72584900   0.99832500  -2.23364800
H    3.42201200   2.95979900  -1.26428600