12

C    1.05089500   0.00777800  -0.00592100
S    2.82139500  -0.24250000  -0.02315100
O    3.32070400  -0.66626300   1.25572500
O    3.29926100  -0.64075000  -1.31831700
C    3.51523200   1.92415100  -0.00749600
C    4.91140500   1.83329500  -0.01975400
N    6.07479100   1.73060900  -0.03017100
H    0.77689900   0.55036400  -0.91914300
H    0.79224700   0.53219200   0.92227100
H    0.63675000  -1.01392300  -0.01254500
H    3.04763800   2.21065500   0.94417800
H    3.03224200   2.22923900  -0.94560600