18

C    1.53683100  -0.43340400   0.97883100
N    2.18635900   0.17555300  -0.13966500
C    2.75742100   1.48428100  -0.15353000
C    2.10723900   2.44595400   0.82404200
C    4.32144800   1.32029000   0.10069800
C    4.99699400   2.59229500  -0.06920500
C    5.55127000   3.65613200  -0.21494400
H    1.35025000  -1.49431900   0.78320600
H    0.58097600   0.08492700   1.17905600
H    2.15801400  -0.30841900   1.88369600
H    2.32890500  -0.39719200  -0.97588400
H    2.67005900   1.84836800  -1.19188600
H    2.26376300   2.14745800   1.87076500
H    1.02964800   2.54086000   0.62923100
H    2.56685200   3.43408400   0.69073500
H    4.73097400   0.57641900  -0.60015500
H    4.45886800   0.93802100   1.12525700
H    6.06388000   4.59447200  -0.34217800