18

C    0.94987200  -0.19726400   0.18531300
C    2.44479500   0.01383400   0.00731800
C    2.79251100   0.10268600  -1.58110200
O    2.23285500   1.23326400  -2.09661500
C    3.19550600   1.13692100   0.76985000
C    4.18162200   0.04391700   1.22977600
N    3.30349600  -0.92801300   0.62249900
H    0.68688300  -0.23835900   1.25087300
H    0.60896200  -1.12149000  -0.30449300
H    0.42680700   0.65873700  -0.26328900
H    2.44132700  -0.83536000  -2.04252300
H    3.88667800   0.17473700  -1.66411300
H    1.36086200   1.06227700  -2.46960700
H    2.60212900   1.55214400   1.59461300
H    3.59597600   1.95147200   0.15558800
H    5.18649100   0.05010500   0.76854300
H    4.31002000  -0.11917500   2.31351100
H    3.26014900  -1.94821400   0.69084800