16

C    4.07868000  -0.61219800   0.57097100
O    3.83200500   0.64037800   1.14066600
C    3.70967100   1.69037300   0.30183800
C    5.18217900   2.38649000   0.04595000
C    6.13781000   1.47273100  -0.56272700
C    6.23325800   1.27229900  -1.91670000
H    4.17012300  -1.34285200   1.38108400
H    5.03753700  -0.56284300  -0.00133400
H    3.28315500  -0.89409800  -0.13773900
H    3.13886400   2.48791300   0.79689600
H    3.29160200   1.42521300  -0.68238000
H    5.50445600   2.74950700   1.02917900
H    4.90741100   3.22225600  -0.61701000
H    6.83490900   0.94090400   0.09425400
H    5.55534700   1.77046400  -2.61787800
H    7.00467200   0.62281700  -2.33903800