15

C    6.59807400  -0.29642800   1.29830600
C    5.14675700  -0.04522800   1.61687300
O    4.37403400   0.19247200   0.37079500
C    4.35406000   1.34182200  -0.15744600
O    4.88941700   2.38734700   0.20558800
C    3.68422700   1.61130500  -1.45220400
C    2.69697600   2.54645500  -1.53484600
H    7.11737800  -0.53612100   2.23731900
H    7.08470200   0.58971100   0.86669300
H    6.71483700  -1.15163600   0.61913900
H    4.98884400   0.82654000   2.26749700
H    4.64426700  -0.91896900   2.04421200
H    4.10628600   1.10636500  -2.33030800
H    2.40533500   3.15661500  -0.67450300
H    2.15042000   2.68499600  -2.47279700