17

C    2.96493800  -1.13585000  -0.60723100
C    2.48408000   0.05949600   0.20837400
C    3.42128800   1.25825300   0.07943300
C    3.42154600   2.00739300  -1.19947100
O    2.41177100   1.86876600  -2.01413100
C    2.95692800   2.55792800   0.61490600
O    3.81307000   3.33779500   1.21524700
H    2.29042200  -1.98898900  -0.45660600
H    3.97372600  -1.45043800  -0.30221400
H    2.98152300  -0.91369700  -1.68429900
H    2.43389400  -0.19666700   1.27713100
H    1.46709300   0.35052700  -0.09677600
H    4.45129000   1.06391600   0.41350400
H    4.28183600   2.61946000  -1.49686000
H    2.46631700   2.44710900  -2.78974500
H    1.89410700   2.83020600   0.57993100
H    3.43365100   4.19041400   1.47743000