14

C    0.93455600  -0.03506800   0.06346900
C    2.46302300   0.02768700   0.02504500
C    3.09952400   1.12400400   0.87192000
O    4.24792900   0.48593800   1.56218300
N    4.20357200  -0.78102800   1.38707200
C    3.11378900  -1.24179700   0.52357700
O    2.91750900  -2.39088900   0.34592500
H    0.58409000  -0.88581500  -0.53531400
H    0.50958800   0.88247400  -0.36397800
H    0.56400200  -0.15305600   1.09159600
H    2.79851800   0.12705100  -1.02327900
H    2.46180500   1.49505000   1.68849400
H    3.53607200   1.96885200   0.32619600
H    4.92193100  -1.33527200   1.87171100