13

C    0.98646000  -0.06714500  -0.09555200
C    2.51406700   0.00741400  -0.00746800
C    3.23792100  -0.64946800  -1.14928200
N    2.61381700  -1.19370800  -2.10901800
O    2.97359200  -2.02397300  -3.00815100
C    3.03292900   1.38012400   0.09119100
N    3.43489200   2.46102000   0.13629300
H    0.54856000   0.40487400   0.79262200
H    0.65625300  -1.11523400  -0.12427900
H    0.61597700   0.46348300  -0.98389600
H    2.86954000  -0.53620500   0.89153900
H    4.34154300  -0.63052600  -1.20735900
H    2.67512900  -1.70296500  -3.88891800