13

O    1.36778900  -0.09163600   0.99098700
N    2.52475600   0.50153700   0.86048300
C    2.71931700   1.41539400  -0.13731900
N    1.80467000   1.74375700  -0.99117800
C    4.10000900   2.02894300  -0.17892100
C    4.98827900   1.52831900   0.86688200
C    5.70075800   1.09549400   1.74307400
H    1.39223100  -0.71021100   1.74327800
H    3.31196200   0.29379800   1.50451900
H    0.91081500   1.25695600  -0.85628900
H    3.97766100   3.12214600  -0.10389600
H    4.51828200   1.83263300  -1.18005300
H    6.36891600   0.73633500   2.50897900