13

O    3.06810900  -0.73505100  -0.72791600
C    2.17764900   0.06291400  -0.02419800
C    2.84251800   1.38145700   0.13150600
N    2.38333100   2.44164400   0.72593300
N    3.19926700   3.41301700   0.68647300
C    4.30815000   3.17287300   0.07729000
C    4.20949600   1.74687900  -0.38391100
H    2.70046900  -1.61365700  -0.86727200
H    1.93321800  -0.31627400   0.98863500
H    1.21158500   0.22862000  -0.54253200
H    5.11240200   3.89956700  -0.04382000
H    4.29038900   1.62090900  -1.48152600
H    5.00009200   1.08548500   0.02192800