13

C    0.44672200  -0.61089800   0.23896700
C    1.90650000  -0.52097300  -0.12109500
O    2.37249500   0.89793300  -0.07667000
C    2.12576000   1.69123300  -1.02036600
O    1.51478600   1.47615500  -2.08647900
C    2.52841900   3.05988600  -1.05390100
C    2.79043700   4.23741000  -1.25445500
H    0.17307400  -1.67567400   0.26603100
H   -0.19798400  -0.12368400  -0.50667600
H    0.25304300  -0.18618600   1.23299600
H    2.13803000  -0.89758600  -1.12735100
H    2.56365300  -0.99759800   0.61294900
H    3.04258800   5.28204700  -1.39418600