15

O    0.97549300   0.32926500   0.39630800
C    2.26877300   0.06888600   0.24753700
C    3.31536700   1.08849400   0.80056500
C    4.13074800  -0.14103900   1.25470400
C    2.98153500  -1.11775300   0.88991100
C    2.62453400   0.16783700  -1.41701000
O    3.51439100  -0.43203100  -1.86800700
H    0.45325500  -0.46798000   0.58025800
H    2.81721600   1.65676000   1.60038800
H    3.79517900   1.79851000   0.11239100
H    5.04221300  -0.30388300   0.66716600
H    4.38136900  -0.12844900   2.32396300
H    3.23646100  -1.96622100   0.24248900
H    2.40972800  -1.48424500   1.75509600
H    1.92623200   0.88228700  -1.90897100