20

C    0.66444800   0.30032400   0.24289300
C    2.08912800  -0.00054400  -0.21296700
C    3.15001900   0.57403500   0.71188300
C    4.54300200   0.10684000   0.58607300
C    5.15662600   0.68956300  -1.01343000
C    6.57970300   0.30722000  -1.11963000
H   -0.06008000  -0.08496600  -0.48623700
H    0.49658700   1.38281600   0.34316500
H    0.44607600  -0.17179800   1.21204100
H    2.24367000   0.44118200  -1.21608500
H    2.23862100  -1.08771200  -0.31849700
H    2.96394800   0.18029000   1.75667000
H    3.07674300   1.66767200   0.82667200
H    4.68893800  -0.97686100   0.47996500
H    5.28124700   0.58240700   1.24603000
H    4.94346000   1.76419300  -0.95269600
H    4.44469400   0.13958000  -1.64563900
H    7.23763700   0.83966200  -0.41934800
H    6.87322500   0.64621000  -2.14070200
H    6.75501000  -0.77610600  -1.08541000