14

N    0.96702400  -0.35065700  -0.03822800
C    2.04051800   0.19420000  -0.50906200
C    3.18184500   0.44298200   0.44744400
O    2.89350900  -0.07827500   1.69589200
C    3.48547500  -1.26649300   2.04162900
C    2.15144400   0.58739700  -1.86139100
C    2.29384200   0.93914800  -3.01108200
H    0.95759500  -0.59514800   0.95688500
H    0.14797100  -0.53444000  -0.61510400
H    3.30298400   1.53921700   0.51767300
H    4.10839800   0.04118100  -0.00123100
H    4.45882400  -1.49187400   1.59348600
H    3.23334900  -1.58567900   3.05258600
H    2.41309800   1.25040000  -4.03872700