9

N    0.95041900  -0.13619300   0.00000000
C    2.10061100  -0.04246900   0.00000000
C    3.55502300   0.07128000   0.00000000
C    4.05943600   1.41132200   0.00000000
C    4.51308500   2.56965900   0.00000000
C    4.99992000   3.82691600   0.00000000
N    5.42547500   4.92491400   0.00000000
H    4.00778500  -0.45774700  -0.87187300
H    4.00778500  -0.45774700   0.87187300