17

C    2.63412400  -0.94320500  -1.91689700
C    2.28611500  -1.17804700  -0.45236600
N    2.63010300  -0.02375500   0.37053900
N    1.74171000   0.64378500   0.98951300
C    2.12169100   1.70041400   1.71121500
C    1.14157300   2.44199300   2.39992200
C    1.46607200   3.53446300   3.15655400
H    2.37800900  -1.84580900  -2.48749400
H    3.70855200  -0.75473300  -2.05835100
H    2.06272500  -0.10091800  -2.33034400
H    2.84472500  -2.03629600  -0.04497600
H    1.21410700  -1.35217800  -0.29757800
H    3.62142300   0.25814400   0.41250400
H    3.18455600   1.98823000   1.76892800
H    0.10381100   2.10939900   2.30720100
H    2.50082100   3.87551800   3.25648100
H    0.69709800   4.10111100   3.68612600