17

N    2.88157300  -0.81674800  -1.66264900
C    2.22759100  -0.32080900  -0.64990500
N    0.89902900  -0.21664300  -0.67607900
C    2.97883300   0.29151700   0.51653200
C    4.45339900  -0.02828000   0.52177400
C    5.41603600   0.74913200  -0.36293100
C    5.41038700   0.96926400   1.11505500
H    3.90127600  -0.79619000  -1.64233700
H    2.40597700  -1.20184300  -2.47565700
H    0.34351600  -0.68282600   0.05074400
H    2.48493600  -0.04136700   1.44374500
H    2.80460600   1.37967500   0.45248500
H    4.68596300  -1.08245100   0.70635500
H    5.00989500   1.54636400  -0.99318000
H    6.25929500   0.21075200  -0.80247800
H    6.23898800   0.57240300   1.70403500
H    5.00169900   1.91006100   1.49207200