12

C    1.25448900  -0.37641000   0.51601700
C    2.52678400  -0.17655500  -0.03724800
N    3.21530000   0.93480000   0.13535700
C    4.53167800   1.13436000  -0.44029400
O    5.05822700   0.30175600  -1.10042200
C    5.07955100   2.51884400  -0.06677700
O    4.40352900   3.23401500   0.61382200
H    0.73082300  -1.31872300   0.33963800
H    0.76699900   0.39138200   1.12477900
H    3.01783100  -0.94462800  -0.64852600
H    2.86550100   1.72940400   0.68732600
H    6.08563300   2.76274200  -0.46353300