9

C    0.95854300   0.06343600  -0.00045200
C    2.19217800   0.01166900  -0.00006500
C    3.56689300  -0.03796500   0.00038300
N    4.31495900   1.10048500   0.00300800
O    5.52841600   0.73015400   0.00273600
N    5.69558300  -0.67188500  -0.00006600
C    4.50125500  -1.14705300  -0.00151700
H   -0.12556300   0.11209100  -0.00078500
H    4.30576500  -2.21988100  -0.00379200