15

C   -1.44339600   0.66821200   0.22612100
C   -1.49676700  -0.81599700  -0.15782800
C   -0.27697500  -1.61782500   0.14839200
N    0.88877300  -1.10094700   0.23119300
N    1.40906500   0.02982400   0.06839500
C    1.02080400   1.20280700  -0.25769700
C   -0.41155000   1.54296600  -0.49707800
H   -2.43486600   1.09533700   0.02561100
H   -1.29334400   0.75551700   1.31365800
H   -1.69252400  -0.95036700  -1.23918700
H   -2.34428500  -1.30658300   0.34585200
H   -0.33662300  -2.70017900   0.31220600
H    1.80747300   1.95964100  -0.35903100
H   -0.54708100   2.59882500  -0.21525300
H   -0.55612100   1.52096700  -1.59448600