14

O    2.32593900  -1.21979200  -0.65617100
C    2.03948800  -0.16609600  -0.12490500
O    0.81457500   0.18348700   0.10623300
C    3.05701000   0.88114600   0.30854300
C    4.40701500   0.29628100   0.66836900
C    4.61345500  -0.98149000   1.37925000
N    4.87876300  -0.90466300  -0.07516200
H    4.13594000  -1.33783100  -0.66139000
H    2.68672800   1.46582700   1.16470500
H    3.16595400   1.58759900  -0.53048600
H    5.19134700   1.04809000   0.79367100
H    3.76123200  -1.61704200   1.63181600
H    5.50089500  -1.10075300   2.00363000
H    5.83841900  -0.94419400  -0.42409400