17

C    0.92177200  -0.06592700  -0.23762900
C    2.36972000  -0.24096600   0.04434900
O    3.13494100  -0.85565600  -0.80641900
C    3.07604900   1.81820800   0.13995100
C    2.59064300   2.32544900   1.46175600
C    4.44172600   1.63704900  -0.07911700
C    5.63413200   1.44172000  -0.25587400
H    0.44894400   0.64207600   0.45175300
H    0.44299600  -1.04904900  -0.07724800
H    0.73274000   0.24255800  -1.27681400
H    2.71596500  -0.36551700   1.07670900
H    2.75177800  -0.90650700  -1.69680800
H    2.48915500   2.08361400  -0.74998600
H    3.12738000   1.86729100   2.30373100
H    1.50748700   2.19906000   1.58711000
H    2.79013100   3.41117500   1.49825800
H    6.69006500   1.28892900  -0.41368200