18

N    1.59159900   0.34440900   0.76124600
C    2.60873100  -0.20193100  -0.04015300
C    2.23638900  -1.51747100  -0.77472900
C    3.10653600  -1.48671200  -2.03587100
C    3.21427800  -0.03016100  -2.41837000
C    1.98543900   0.80979600  -2.40052400
C    2.85934900   0.82748000  -1.17549300
H    0.65820700   0.48754600   0.37175400
H    1.77880900   0.77421800   1.66798800
H    3.52057600  -0.31700200   0.56057100
H    1.16465300  -1.50990200  -1.02432400
H    2.41226500  -2.39039600  -0.13283000
H    4.11043600  -1.88722500  -1.83294900
H    2.66613800  -2.10176800  -2.83616500
H    4.07376200   0.30041200  -3.00777000
H    1.98192700   1.72822500  -2.99006900
H    1.01423400   0.30506600  -2.36216500
H    3.39449600   1.73877900  -0.90003900