9

C   -0.03035100   0.93039900  -0.05927200
C   -0.68549000  -0.59475700  -0.04872700
C    0.72159000  -0.54947200   0.04485500
H    0.01769000   1.45217300  -1.01943700
H   -0.10929200   1.51975200   0.85882600
H   -1.16978000  -0.76522400  -1.01723600
H   -1.29650500  -0.69782800   0.85551000
H    1.21363700  -0.61385900   1.02225900
H    1.34035000  -0.68123400  -0.85032700