17

C    1.00350700  -0.05249000  -0.02492600
C    2.48334700   0.04166400  -0.04378700
N    3.25212700  -0.42133800  -1.10692200
C    3.49127800   0.96719100  -1.11293600
C    2.91798900   1.78461500  -2.22214500
C    4.68479500   1.49911700  -0.37576200
H    0.58319200   0.75874500   0.58684200
H    0.71338100  -1.00022700   0.46103600
H    0.56024400  -0.02615000  -1.02903800
H    3.00614700   0.14840000   0.91317400
H    2.73666400  -0.80511300  -1.90421700
H    1.95693600   1.39850000  -2.58615100
H    3.62991400   1.79485700  -3.06520700
H    2.79010400   2.82698500  -1.89690700
H    5.06743900   0.79743400   0.37524600
H    4.45850400   2.46780000   0.08935400
H    5.47748200   1.66455500  -1.12470900