12

C    0.94549300   0.04428800  -0.00450700
C    2.42234100   0.01441900   0.00056400
C    3.30132600   1.08870400  -0.00705000
N    4.59412700   0.73389300   0.00075800
S    4.97004200  -0.90204100   0.01792700
C    3.15420100  -1.27128200   0.01552700
O    2.72155600  -2.37942800   0.02491600
H    0.55593100   1.06878000  -0.01625700
H    0.55642700  -0.48696800   0.88036400
H    0.56210000  -0.50502900  -0.88078500
H    3.03997100   2.14831800  -0.01823300
H    5.35061400   1.42354400  -0.00355300