20

C    1.76245000   1.41273900  -0.97114000
C    3.01691000   1.40502700  -0.13521700
O    4.11876900   1.86004200  -0.94047800
C    5.34278000   1.77761500  -0.43904400
C    5.74195600   3.22117400   0.49510700
C    7.10938400   2.98500500   1.09442000
N    5.63492400   4.31189600  -0.31724100
H    0.91675600   1.06863300  -0.36035700
H    1.86398000   0.73861800  -1.83220500
H    1.53516800   2.42350700  -1.33649400
H    3.25612200   0.39654300   0.23994200
H    2.92566900   2.08152500   0.73515700
H    6.10500500   1.78838800  -1.22874500
H    5.49631500   0.99269300   0.32085500
H    4.90724100   3.16985700   1.21369700
H    7.88754900   2.93540400   0.31799100
H    7.13204000   2.05068000   1.66901800
H    7.35339300   3.80967100   1.77986900
H    4.72767500   4.65153300  -0.62518300
H    6.44943000   4.69658400  -0.79064000