18

C   -1.46858800   0.79673200   0.12298100
C   -1.50570400  -0.73747200  -0.09437100
N   -0.27894200  -1.36178500   0.33617900
C    0.89858600  -1.25869000  -0.41528900
C    1.69647200   0.12336500  -0.07069300
O    0.89559000   1.12749300   0.38066400
C   -0.22486600   1.50421500  -0.40336300
H   -2.36326900   1.18865300  -0.38410400
H   -1.57057700   1.02225400   1.19435700
H   -1.62553800  -0.95846300  -1.16664700
H   -2.34298400  -1.18170600   0.45900300
H   -0.21093900  -1.67642300   1.30779500
H    1.58935600  -2.08160800  -0.18350600
H    0.64373600  -1.25073700  -1.48305400
H    2.42583400  -0.09967400   0.71819100
H    2.22036000   0.35539800  -1.01646400
H   -0.34594700   2.58895400  -0.28855100
H   -0.04878800   1.30200400  -1.47581600