12

O    0.89568000   0.30491000   0.34242900
N    2.18057600   0.12813800   0.37371100
C    2.84465400   1.25514900   0.17416000
C    4.24331400   1.16481900   0.19013000
C    5.05249100   2.28559000  -0.00831300
C    6.43610800   2.21877300   0.00349600
C    7.65887200   2.17719300   0.01083900
H    0.48698400  -0.56552600   0.49646000
H    2.30624300   2.19776700   0.00727600
H    4.69441000   0.18283000   0.36398400
H    4.59150900   3.26616400  -0.18191600
H    8.73847200   2.14167600   0.01711300