16

C    2.28125500  -0.80151600  -1.21068000
N    2.18520600   0.31907100  -0.32117800
C    3.02629700   1.44604000  -0.30455400
C    2.30379800   2.84580400  -0.34363500
C    3.20281900   3.25195800   0.83210800
O    3.47188400   4.28987200   1.32649000
C    3.66383500   1.81076400   1.08938000
H    1.32048200  -0.93571400  -1.73725500
H    2.45900100  -1.72043500  -0.62362200
H    3.09307400  -0.65105800  -1.93051400
H    1.43370100   0.29219700   0.37456300
H    3.78164700   1.34592600  -1.09388000
H    1.24500600   2.80493700  -0.03894100
H    2.38613400   3.40788300  -1.28478100
H    4.74050200   1.61598500   1.19592800
H    3.13057100   1.37036800   1.94801100