19

C    3.51874000  -0.67003900  -1.23767400
C    3.02216900   0.11175000  -0.03024000
C    3.16627600   1.63992500  -0.06045000
C    2.63209800   2.32353300  -1.29817500
C    2.77455800   2.32794800   1.23994600
C    4.84229100   1.79494500  -0.03057400
O    5.41522900   2.33627700  -0.88965400
H    3.32722700  -1.74053400  -1.08524000
H    4.60530000  -0.56053000  -1.38965400
H    3.00974800  -0.37390200  -2.16452300
H    3.45301300  -0.28223900   0.90454600
H    1.92600100  -0.01737300   0.07158600
H    3.05487100   1.92075500  -2.22694100
H    2.79105600   3.40975700  -1.26997500
H    1.54437000   2.14610100  -1.31980200
H    3.17489000   1.82400100   2.13090300
H    1.67292000   2.28524100   1.29245400
H    3.04937100   3.39270400   1.25568300
H    5.28870900   1.33426200   0.88265400