15

O    1.08053100   0.02088700   0.56928400
C    2.39923400   0.07341600   0.15691600
C    2.60764800   1.23671300  -0.84799400
N    3.93772200   1.12033700  -1.41452700
N    4.43828800   0.00969900  -1.84270900
C    3.81907700  -1.11334900  -1.55588300
C    2.72665300  -1.23371800  -0.56402600
H    0.93430700   0.57564000   1.34266800
H    3.10079500   0.21560800   0.99910900
H    2.51422100   2.22629500  -0.38447800
H    1.85654700   1.15044600  -1.65297300
H    4.56405700   1.92713500  -1.48313200
H    4.17036500  -1.98979800  -2.11053500
H    1.82824500  -1.56183000  -1.12623500
H    2.93825500  -2.06102000   0.13287800