15

C    0.88276300  -0.00274500   0.12910500
N    2.24792600  -0.00813400   0.53558700
C    3.15968200   1.05287600   0.90934300
C    4.21911200  -0.02380500   1.27515700
C    3.18405400  -1.08094000   0.79920100
C    5.46986400   0.02881600   0.53020600
N    6.44414600   0.07206100  -0.08682900
H    0.67593400  -0.88261900  -0.49562200
H    0.65533500   0.93164200  -0.40235400
H    0.24097400  -0.05638300   1.03115900
H    2.76945300   1.67845500   1.73115400
H    3.39996400   1.70868900   0.05282800
H    4.42383000  -0.07714500   2.35363800
H    3.43822500  -1.63947200  -0.11997500
H    2.80916100  -1.79651700   1.55180700