12

O    1.06116200   0.02789600  -0.29355700
N    2.31642200  -0.04320200   0.06525300
C    2.89376400   1.16024000   0.06704100
C    4.33070900   1.31539400   0.44646100
O    4.55246600   2.72384500   0.32229500
C    3.46203200   3.30199000  -0.05749000
C    2.38640400   2.42655900  -0.24133400
H    0.71610600  -0.88184800  -0.26939200
H    5.03077600   0.79614800  -0.22745500
H    4.55443700   1.02202500   1.48460300
H    3.50276000   4.38667100  -0.18932300
H    1.37928000   2.69039400  -0.55645100