18

C    0.78299700   0.29717700  -0.23699600
C    2.18300200   0.02050900   0.20351600
C    2.57173300   0.27611000   1.64033500
N    2.02145600  -0.79172300   2.42417300
C    3.08794600  -0.78096100  -0.68017600
C    3.46948400   0.61204300  -0.98310700
O    4.54026100   1.21015400  -0.53274000
H    0.68701700   0.31177300  -1.33166400
H    0.40788800   1.24516300   0.17462200
H    0.12175400  -0.51097400   0.11879300
H    2.17497600   1.23963400   1.98899900
H    3.66455300   0.31240300   1.76771600
H    2.35686200  -1.72980000   2.23309100
H    1.02529200  -0.76135600   2.61202200
H    2.60306100  -1.32552900  -1.49872400
H    3.86380800  -1.36585500  -0.16921200
H    2.92004000   1.21138500  -1.71498400
H    5.15174300   0.62063600  -0.06693600