10

O    1.02393300   0.06071600  -0.26561200
C    2.17335700  -0.10602400  -0.07601500
O    2.97429800   1.15086000  -0.02074100
C    4.22711400   1.13493600   0.17726200
C    4.91968500  -0.09226300   0.35547100
C    4.15518100  -1.28318200   0.30248800
N    2.85911000  -1.27349000   0.09816800
H    4.71321300   2.11958400   0.19810600
H    5.99862500  -0.09542900   0.52542600
H    4.63228000  -2.26126800   0.43310700