11

N    0.94740500   0.07416400   0.25182700
C    2.21487100  -0.11568100   0.02888600
N    2.84491300  -1.25131900   0.07079200
C    3.03711000   1.23862800  -0.15758500
O    2.41854300   2.24175800   0.01978800
C    4.40661200   1.09440700  -0.52990100
C    5.57146000   0.98373800  -0.84001500
H    0.61715300   1.04217600   0.29437400
H    0.29221300  -0.69375800   0.38437300
H    3.51956900  -1.56019500  -0.63651700
H    6.61261700   0.89883100  -1.11499100