15

C    1.02428500  -0.29640900   0.04438900
C    2.49231200  -0.35504700  -0.06486400
S    3.21542100   1.65413600  -0.01542400
O    2.65977900   2.17717000  -1.24505300
O    2.80497200   2.02133800   1.32561900
C    4.96881200   1.45163900  -0.09770900
C    5.59074100   1.65227000  -1.25748000
H    0.70812900  -1.36179400  -0.00829200
H    0.54606600   0.21853800  -0.79910200
H    0.67532400   0.09349300   1.00924700
H    2.92775200  -0.60692100  -1.04158200
H    3.05881100  -0.72002600   0.80270000
H    5.40923600   1.19422200   0.86937800
H    5.05884000   1.91600300  -2.17653300
H    6.68121900   1.56966400  -1.29817300