14

C    0.97102400  -0.06680000  -0.34543000
C    2.15585700  -0.00171400  -0.12846700
C    3.59255100   0.09245200   0.12777200
N    4.09567000  -1.08701600   0.79950100
C    4.85235300  -0.77986000   1.96531400
C    4.80560600   0.71314300   2.02980200
C    4.08724300   1.20565700   1.01767300
H   -0.08796500  -0.11658100  -0.53999200
H    4.11896400   0.14080800  -0.85865000
H    3.86179400  -2.03531800   0.49457800
H    5.87170800  -1.21941300   1.88260800
H    4.40683900  -1.29388600   2.84659700
H    5.29669800   1.28307200   2.81803600
H    3.87404800   2.25158600   0.80104200