14

C    1.00678600   0.52807600   0.37261100
C    2.15115200   0.34115300  -0.31594100
C    3.49055300   0.99348600   0.03236400
C    3.71836200   1.40289900   1.47398300
O    3.14717800   2.74663400   1.53377000
N    2.83296100   3.20996300   0.36227600
C    3.07248100   2.28119600  -0.56107700
H    0.09729600  -0.00371500   0.08079900
H    0.93215700   1.18305300   1.24708800
H    2.15065600  -0.24067100  -1.24280600
H    4.32806100   0.47362900  -0.44722400
H    4.78030600   1.51497400   1.73891500
H    3.21109700   0.79936500   2.23670400
H    2.89424900   2.51461100  -1.61313300