17

C    3.16264500  -1.51085500  -1.11355900
C    3.03543300  -0.50718500  -0.01358200
C    2.87724100  -0.84066600   1.29605600
C    3.15354900   0.96073600  -0.39666700
C    4.56063500   1.03783100   0.05297700
N    5.53035300   0.66396900  -0.75763300
N    6.75479800   0.83087100  -0.40532900
H    2.30305800  -1.41570800  -1.79607800
H    3.20115800  -2.53747800  -0.72888000
H    4.06755400  -1.32055200  -1.71136600
H    2.77126600  -1.88549400   1.59900900
H    2.79949800  -0.08324200   2.08096700
H    2.49379700   1.62025900   0.17696700
H    3.03405800   1.12032300  -1.47440400
H    4.77946200   1.35301700   1.08579900
H    7.03609800   1.34577700   0.43548000
H    7.47401900   0.47782600  -1.03427800