11

C    0.92171000   0.09906500  -0.00388000
C    2.38584500   0.01947000  -0.00448300
N    3.21771600   1.03860600  -0.00924200
C    4.48468700   0.65322600  -0.01041600
C    4.69067900  -0.77350500  -0.00642400
S    3.23435000  -1.58443900  -0.00191500
H    0.60935400   1.14979800   0.00661300
H    0.50804200  -0.42959600   0.87285000
H    0.51115400  -0.40839600  -0.89494400
H    5.30129300   1.38046400  -0.01410200
H    5.65672900  -1.28509400  -0.00651700