14

C    0.89322500  -0.27162900   0.12751300
C    2.43879200   0.01061500   0.09589400
N    2.68133300   1.38054000  -0.14787000
C    2.90374300   1.90971500  -1.48061500
O    2.86947500   1.13778300  -2.39548000
C    3.12545000   3.32312400  -1.50671200
C    3.32029400   4.51610000  -1.54968200
H    0.79081600  -1.34079200   0.35614800
H    0.46024400  -0.05881400  -0.85784700
H    0.39442300   0.31742600   0.90744900
H    2.89231200  -0.57690600  -0.71394000
H    2.85506400  -0.24179800   1.08456000
H    2.59992400   2.05491100   0.62403200
H    3.49570100   5.58064900  -1.59723700