15

O    1.01575300  -0.33308600   0.09299200
C    2.37635000  -0.11685700  -0.02027700
C    2.91984400   1.07329200   0.80044400
C    4.34941200   0.66860300   1.14639900
N    4.30952700  -0.76920200   1.13498500
C    3.10262200  -1.31726200   0.61564400
H    0.53114000   0.18071700  -0.56072000
H    2.70031500  -0.02847800  -1.07445300
H    2.31374000   1.16257300   1.71483700
H    2.87701600   2.02873300   0.26372900
H    5.09450200   0.97826900   0.38129600
H    4.74786100   1.02783900   2.11091600
H    5.08915500  -1.34846400   1.46082200
H    3.30408300  -2.18984300  -0.02708400
H    2.48648400  -1.68982400   1.46706600