17

N    0.98555100   0.17826700   0.00536700
C    2.29394700   0.00170700   0.21877200
C    3.15643200  -0.72473000  -0.75004000
C    3.58300600   0.53279300  -1.41154800
N    2.92531400   1.05231900  -2.43401100
C    4.80980500   1.27042800  -0.95624300
O    4.69719800   2.59427500  -1.36896400
H    0.44159200   0.78635800   0.60627100
H    0.46124700  -0.42261100  -0.62098900
H    2.73495800   0.48501000   1.09226700
H    2.60571100  -1.41182800  -1.40974800
H    3.98747200  -1.25888500  -0.27147700
H    2.16515100   0.57587900  -2.90277100
H    3.17459300   1.99823800  -2.71903100
H    5.67505400   0.75001400  -1.41788200
H    4.92364700   1.16383500   0.13819400
H    5.55254400   3.03351700  -1.34129200