15

N    0.92900800   0.45182800   0.30267000
C    2.23019900   0.22154200   0.06427200
N    2.97237700   1.32583900   0.02578100
C    4.38160500   1.31827200  -0.34120100
C    5.06639800   0.05234000   0.16252500
C    4.21228900  -1.15972900  -0.04808500
C    2.87052700  -1.07294700  -0.11734800
H    0.37423300  -0.41032500   0.23835000
H    2.47247600   2.20657500   0.17297800
H    4.84679100   2.22939200   0.05521200
H    4.42508700   1.37776700  -1.44520500
H    5.30803100   0.12096400   1.23896400
H    6.03096000  -0.05794500  -0.35245500
H    4.69489300  -2.14005500  -0.08928300
H    2.23155700  -1.95065000  -0.22275500