13

N    1.00218300  -0.32628400   0.23005300
C    2.29046700  -0.21893400   0.25394000
C    3.17479100  -0.52844200  -0.88809400
C    3.51877800   0.87242300  -1.34525900
C    4.62270100   1.54524300  -0.87699600
C    5.61540600   2.13647900  -0.46321500
H    0.42540900  -0.00836100   1.00820500
H    0.51257800  -0.72972000  -0.56895300
H    2.73522000   0.20309300   1.16310500
H    2.66501100  -1.10775100  -1.67122400
H    4.06911400  -1.06849900  -0.54501500
H    2.83183700   1.37363800  -2.03444600
H    6.48999100   2.66197400  -0.11641700