10

N    0.97910900  -0.00488800   0.00623400
C    2.13955000   0.03439900   0.00229600
C    3.54860900   0.05064100  -0.00242800
N    4.32419900   1.14178400  -0.00763000
C    5.56589900   0.70535200  -0.01069300
C    5.58381300  -0.75195400  -0.00722700
N    4.30877900  -1.11707800  -0.00210000
H    6.43530800   1.36574500  -0.01517300
H    6.41573600  -1.45834900  -0.00827700
H    3.94480200  -2.07112200   0.00143800