14

O    0.98579900  -0.03720300   0.09502100
C    2.28371100   0.09059400  -0.07594500
C    2.94652800   1.13708400   0.79456100
C    4.33723600   0.60769900   1.19901500
O    4.39516200  -0.75018300   0.71332000
C    3.22836900  -1.34106600   0.73593300
H    0.54227800  -0.48087800  -0.64471400
H    2.65740200  -0.04598300  -1.10347100
H    2.30128200   1.31295700   1.66706500
H    3.00448800   2.08308000   0.23453300
H    5.17374900   1.12738200   0.72021400
H    4.49021900   0.60708400   2.28791400
H    3.18864700  -2.26953200   0.15506900
H    2.63457300  -1.30411600   1.66538000