15

O    1.28203800   0.00740100   0.51356200
N    2.50271400  -0.02537600   0.07645800
C    3.23084600   1.22795400  -0.05812900
C    4.45475600   0.80512800  -0.87736800
C    4.63572300  -0.69016100  -0.57203600
C    3.25787500  -1.18851500  -0.23539900
N    2.84496800  -2.38577900  -0.21442300
H    0.93275900  -0.90085000   0.60357400
H    3.47483400   1.57574300   0.96239600
H    2.57312000   1.97435900  -0.52696200
H    4.25486100   0.95906500  -1.94698000
H    5.33529800   1.40091800  -0.61237400
H    5.05592000  -1.27001600  -1.40282700
H    5.28183200  -0.85982600   0.30525400
H    1.86818800  -2.56630500   0.03183300