17

C    0.97618100   0.26206000   0.11182400
C    2.40529200  -0.17824000  -0.05600800
C    3.04301000  -0.97588800   1.05215800
O    2.66434200  -0.58485800  -1.29657700
C    3.28074300   1.49066900  -0.07639800
C    3.82990000   2.01907800   1.16042900
O    4.58627300   1.39640800   0.07163100
H    0.62366300   0.83139500  -0.75777600
H    0.83526900   0.84029700   1.03305600
H    0.36639500  -0.65459400   0.18326600
H    2.80286400  -0.56670600   2.04033400
H    4.13361700  -1.05364000   0.93560600
H    2.61221200  -1.98975300   1.00531300
H    3.48139300  -1.10505000  -1.35683800
H    2.82037300   1.94329400  -0.96364800
H    3.78783300   1.42549700   2.07606200
H    4.01282500   3.09217000   1.26600400