18

C    1.52052700  -0.41124100  -0.09174400
O    2.89929300  -0.10297400  -0.16566000
C    3.20128300   1.21975900   0.06077400
C    4.71416500   1.33740900   0.15282500
C    5.40016000   0.61163500   1.25726300
C    5.34889300   1.43802200  -1.38473800
N    5.31914100   2.45615700  -0.43938900
H    1.42007900  -1.48231100  -0.29842300
H    0.94430900   0.15751400  -0.84164300
H    1.11783100  -0.19657700   0.91299400
H    2.82148900   1.58760900   1.03975600
H    2.80360500   1.90439900  -0.71500700
H    6.49384200   0.63363000   1.16452100
H    5.04512900  -0.43002000   1.24561200
H    5.11130500   1.04563800   2.22866100
H    4.50398500   1.31270600  -2.06978500
H    6.32128200   1.04408100  -1.69791800
H    6.20093300   2.81871900  -0.06416000