17

C    0.91196200  -0.05033700  -0.09561700
C    2.44783600   0.04008500  -0.09224500
C    3.13366900  -0.86553800  -1.13150100
C    2.92766400   1.39633200  -0.14011100
C    3.35619300   2.56147700  -0.15505000
C    3.84868700   3.85077000  -0.18286000
C    3.09502100   4.92487000   0.25286100
H    0.46331300   0.57493400   0.68765400
H    0.61755200  -1.09298000   0.08178100
H    0.51235600   0.25763800  -1.07210300
H    2.80514800  -0.27646400   0.91774700
H    2.81717400  -0.58983900  -2.14724400
H    2.83272200  -1.90523800  -0.94789500
H    4.22810800  -0.80347400  -1.06935900
H    4.86464100   4.00889900  -0.56334200
H    2.07970800   4.78680400   0.63544700
H    3.50452000   5.93826000   0.22205800