13

O    2.52458200   2.29167800   2.37609500
C    3.07302400   1.62680200   1.59398400
C    2.81744600   1.89141600  -0.06468900
O    3.82088000   1.38361700  -0.76010100
C    5.01497900   2.18376200  -0.91994000
C    5.68882700   2.28180300   0.37089700
C    6.23703700   2.36692400   1.44619700
H    3.75861400   0.76067100   1.76498400
H    2.67359900   2.98429200  -0.11800600
H    1.89770700   1.29873900  -0.20431400
H    4.74136300   3.17397200  -1.31900100
H    5.62517600   1.64874800  -1.65837800
H    6.75400700   2.45446800   2.38880900