18

C    1.23800200   0.41990200  -0.46435800
O    2.62591100   0.39532300  -0.20174200
C    3.15851100   1.61431900   0.15345600
C    4.64112000   1.36784800   0.42252200
C    5.48097100   0.95405800  -0.76877600
N    5.58723000   2.23984100  -0.17904300
C    6.61157900   3.14559100   0.22099700
H    0.94671300  -0.59658100  -0.75130700
H    1.00066500   1.11204900  -1.29170800
H    0.66672200   0.71990500   0.43079900
H    2.70789600   2.03427900   1.07423100
H    3.04733500   2.37783000  -0.64605300
H    4.90807200   1.02162000   1.42935300
H    4.93849000   0.89287700  -1.72220900
H    6.36523900   0.31143400  -0.68262400
H    6.16730300   3.98631600   0.76977000
H    7.17279700   3.48210600  -0.66046200
H    7.30433700   2.60716200   0.89922500