19

C    2.15277300  -0.91657500  -1.29323400
C    3.30736000  -0.37167100  -0.44954900
C    3.21179500   1.05692600  -0.11325500
C    4.29909800   1.92395000  -0.09199000
C    4.21940100   3.39129400   0.22943300
C    2.96046900   4.16044200  -0.08263300
O    4.44328100   3.13154900   1.61332100
H    2.25538200  -2.00336100  -1.40284900
H    2.15886600  -0.47208400  -2.29817700
H    1.17831600  -0.71299600  -0.82624800
H    4.29327600  -0.61621500  -0.87389400
H    3.28302700  -0.87042800   0.54912400
H    2.21420900   1.44793600   0.12702700
H    5.30831800   1.51034000  -0.19635700
H    5.11045300   3.91196700  -0.14193000
H    2.05881200   3.68436700   0.33235800
H    2.83497500   4.25224600  -1.17062300
H    3.03766300   5.17320900   0.33567400
H    3.59797500   3.05846300   2.08578200