17

C    3.69064200  -0.78146800  -1.19525000
O    2.81636600   0.35814700  -1.18095700
C    3.13652600   1.48123800  -0.64684400
C    4.34450200   1.78849900  -0.00772100
C    4.58255200   3.07235700   0.54673800
C    5.49295900   3.19167600   1.82284000
C    6.05042900   3.63485100   0.55855000
H    3.13776000  -1.56949200  -1.71399200
H    3.91384700  -1.09107300  -0.16494300
H    4.60919600  -0.53768500  -1.74664300
H    2.34213800   2.23158600  -0.73352400
H    5.12684100   1.02652000   0.06969800
H    3.78834900   3.81755300   0.45795200
H    5.82477900   2.24620600   2.25753400
H    5.11337700   3.92792900   2.53540800
H    6.08726900   4.70207500   0.32711700
H    6.79711000   3.01902900   0.05238900