15

C    1.13029300   0.08387500   0.40060800
C    2.38109200  -0.01199700  -0.25137600
C    3.15938100  -1.29266800  -0.30658100
O    4.28890200  -1.23207400  -1.09365900
C    4.99818400  -0.02528400  -0.95246200
C    4.12945000   1.10380600  -1.45286300
O    2.83539100   1.06633200  -0.77126100
H    0.60031800   1.03979600   0.41023700
H    0.69017700  -0.79162800   0.88336000
H    2.49825700  -2.08913400  -0.68993600
H    3.38242600  -1.56278500   0.75182700
H    5.29926200   0.14178300   0.09907800
H    5.90799700  -0.09467800  -1.56165500
H    4.52545200   2.10441200  -1.24461800
H    3.90083900   1.00988400  -2.52374700