16

C    1.08994200  -0.43835500   0.47899700
C    2.35090100  -0.48176300  -0.38998000
C    2.65356000  -1.88144400  -0.93924500
N    2.16077300   0.42378200  -1.52240400
C    2.91343800   1.47989700  -1.85365300
N    3.94208400   1.77276900  -1.09806900
H    0.89858000   0.57367500   0.86039600
H    1.24734500  -1.10458600   1.33825300
H    0.20425200  -0.79728300  -0.06725200
H    3.21545100  -0.09659800   0.16499000
H    1.81399500  -2.27924300  -1.52930500
H    2.81264000  -2.55243500  -0.08398200
H    3.56475900  -1.88349200  -1.55240100
H    1.36264100   0.21665400  -2.13197600
H    2.60062600   2.03003000  -2.75268800
H    4.45176000   2.59139300  -1.44974500