12

N    2.28750500  -1.44313400   0.73661700
C    3.55598700  -1.18872800   0.53806800
O    4.52959700  -1.86522800   0.42754500
C    3.85620200   0.52554800   0.41055600
O    2.87088400   1.16072500   0.52443300
C    5.25384000   0.84459900   0.18872700
C    5.62989400   2.12967700   0.07049400
H    1.61482800  -0.68171800   0.79904800
H    1.97128000  -2.40676500   0.82986300
H    5.93948400  -0.00370700   0.12899400
H    4.91844100   2.95770200   0.13484900
H    6.68215000   2.37554800  -0.09691400