19

C    1.69003200   1.09874900  -1.49062800
O    2.36760000   0.36072200  -0.49016700
C    2.94652000   1.00298500   0.53662500
C    4.49997300   1.28759500   0.09440900
C    4.73891800   2.41341900  -0.90245800
C    5.95345600   2.73751400   0.02749200
C    5.31782300   1.96444400   1.20766200
H    1.04659200   0.39183200  -2.02605100
H    2.44258900   1.50274200  -2.19253900
H    1.11074000   1.92111100  -1.04647100
H    3.05700600   0.31040700   1.38466700
H    2.47984700   1.96471500   0.79918100
H    4.93260900   0.32989700  -0.22708900
H    3.99664400   3.22339100  -0.85403200
H    4.93939600   2.13927700  -1.94514200
H    6.87120200   2.25522200  -0.33108700
H    6.11177500   3.81069800   0.20352600
H    5.94309000   1.30185000   1.81792800
H    4.72518900   2.62578800   1.85437400