15

O    2.86892600  -0.55560300  -1.34073600
C    2.18386900  -0.15962700  -0.19223300
C    2.90661000   1.08309800   0.34873500
C    4.36234800   0.96974000   0.32109000
C    5.22223900   1.56627100   1.25113900
C    6.59192500   1.45349200   1.13079800
C    7.81445500   1.35611200   1.03055100
H    2.39491700  -1.26269700  -1.78903000
H    2.18923700  -0.93937600   0.59228700
H    1.13221700   0.10987500  -0.38741500
H    2.51474400   1.42508600   1.31744700
H    2.71778900   1.90617300  -0.38246000
H    4.78971700   0.40023600  -0.51454300
H    4.81784600   2.13531700   2.09732300
H    8.88889800   1.27207900   0.94353600