18

C    2.05549100  -0.54314700  -1.38465900
C    2.42216200   0.06442800  -0.03699900
C    3.40616700   1.22683600  -0.15287600
O    4.54817300   0.77972700  -0.75787100
C    2.74271600   2.53922600  -0.71639200
N    2.77154500   3.06794600   0.61685900
C    3.56235900   2.02239200   1.19630200
H    1.36882700  -1.38803200  -1.24269700
H    2.94992200  -0.91230500  -1.90276500
H    1.55223800   0.18356700  -2.04183700
H    2.89894100  -0.69233700   0.60572200
H    1.52069500   0.41201300   0.49480100
H    5.19778500   1.47651500  -0.89699000
H    1.72988300   2.51069900  -1.15546900
H    3.38548300   3.12966800  -1.40086600
H    2.21243500   3.80745600   1.05626200
H    4.59764200   2.36485100   1.40125500
H    3.14913900   1.62290000   2.13900200