9

O    0.94005300   0.14934700   0.00000000
N    2.21181100  -0.02240900   0.00000000
C    2.86015700   1.14567100   0.00000000
C    4.23636900   1.09521200   0.00000000
C    5.47139500   1.08557900   0.00000000
C    6.83474500   1.06517400   0.00000000
N    8.00037700   1.04729500   0.00000000
H    0.52261000  -0.73654500   0.00000000
H    2.31712100   2.10299300   0.00000000