13

C    0.86896800   2.36820800  -1.69417000
C    2.00347100   2.02128800  -0.93254700
O    2.77629000   2.93672700  -0.51210900
C    4.01765500   2.50123800   0.32600000
O    4.14714000   1.35235600   0.50837500
C    4.73342600   3.70650200   0.68372900
C    5.85418800   3.60211200   1.41480600
H    0.19923600   1.58610400  -2.05942700
H    0.66068800   3.41846700  -1.91831600
H    2.25406000   0.97779200  -0.68169600
H    4.32894600   4.65975700   0.34127100
H    6.23556300   2.63118100   1.74388800
H    6.41598300   4.49435500   1.70016700