14

C    0.92633700   0.06323900   0.00323900
C    2.46443600  -0.10077300  -0.00032100
C    3.14369700   1.16820400  -0.00046100
C    3.73700000   2.24722100  -0.00031500
C    4.11932100   3.61917300   0.00034400
N    5.33318700   4.11000800  -0.00022800
O    3.04356000   4.25537200   0.00197100
H    0.47921000  -0.93880500   0.00313900
H    0.58346600   0.60024800  -0.89040900
H    0.58734100   0.59833200   0.89951700
H    2.79303000  -0.66077000  -0.89228700
H    2.79688900  -0.66269100   0.88902800
H    6.14162400   3.49496700  -0.00137900
H    5.48006700   5.11767600   0.00051400