19

C    1.88633900  -0.29858700  -1.45289900
O    2.04560400   0.42657300  -0.24135000
C    2.97141300   1.38504700  -0.11601100
C    2.24662400   2.84316800  -0.56311900
C    3.15233200   3.79220100   0.19222500
C    3.30083100   3.16768600   1.57940900
C    3.40430200   1.65163600   1.32932900
H    2.04011300  -1.36014900  -1.20377700
H    2.59953100   0.03614000  -2.21803400
H    0.84238800  -0.16662000  -1.77286500
H    3.78068500   1.28433100  -0.86206700
H    1.22538800   2.79580600  -0.16060800
H    2.24314100   2.89325300  -1.65969400
H    4.12188000   3.88676900  -0.31996900
H    2.68589700   4.79135600   0.20756700
H    4.16617100   3.55879100   2.12919100
H    2.40944300   3.38674500   2.18451200
H    4.43383700   1.26863900   1.42113700
H    2.78171100   1.06151000   2.01609200