19

C    2.90935200  -0.96261700  -0.98077100
C    2.38395600  -0.03849100   0.10533100
C    3.00906300   1.37420600   0.14712200
C    2.41507400   2.35336100   1.18474900
C    2.97042500   3.76767600   1.15338600
C    4.41000900   1.43241900  -0.02217800
C    5.63424700   1.51365600  -0.23734600
H    2.37195700  -1.91958800  -0.94451700
H    3.97950300  -1.18480100  -0.85655600
H    2.75462500  -0.53909500  -1.98513000
H    2.55351700  -0.47371500   1.10560800
H    1.29838200   0.10700100   0.00908600
H    2.76564900   1.83671600  -0.87075900
H    2.58468600   1.88785700   2.17128300
H    1.32755700   2.35238500   1.02286400
H    4.04396700   3.79874300   1.39121700
H    2.45366900   4.38496500   1.90025900
H    2.81576700   4.24372500   0.17282500
H    6.70032500   1.58138800  -0.41804400