15

C    0.89516700  -0.37763000   0.44844800
C    2.27697200  -0.16462100  -0.08939900
C    3.17365800  -1.21974600  -0.28300100
N    2.67402000   1.08718900  -0.38552500
O    3.96826000   1.28086600  -0.71284600
C    1.88167000   2.28252800  -0.20534400
N    2.35639100   3.43871900  -0.12403100
H    0.72778700   0.20879300   1.36426300
H    0.75427000  -1.43689400   0.68943400
H    0.12967200  -0.09590600  -0.29098000
H    2.86226200  -2.23359700  -0.02698600
H    4.17688300  -1.05547200  -0.67660100
H    3.99200100   1.68000900  -1.60107800
H    0.80585500   2.08593200  -0.15984500
H    3.37990900   3.48962600  -0.15088700