10

N    0.88359100   0.07013200  -0.02521100
C    2.04228500   0.02030600  -0.01564800
C    3.45893300  -0.02060700  -0.00287700
C    4.25204800   1.18947700   0.00479700
S    5.90332300   0.88000200   0.01944900
C    5.60455700  -0.84523700   0.01606700
C    4.25208100  -1.16909400   0.00377500
H    3.85381000   2.20873900   0.00163400
H    6.44722500  -1.54194200   0.02333800
H    3.87029000  -2.19043500  -0.00009300