15

C    1.66689000  -0.12354500  -0.04637100
C    0.75233900  -1.15550600   0.59116600
O   -0.46017900  -1.41386400  -0.17153000
C   -1.42634300  -0.55894700  -0.17300200
C   -1.31049500   0.81107700   0.14244100
O   -0.21791000   1.49673900   0.12010000
C    0.92052900   1.04532400  -0.66654300
H    2.27849300  -0.57257200  -0.84264000
H    2.36017900   0.21791400   0.73624200
H    1.23509000  -2.13484500   0.67289800
H    0.42289900  -0.84250700   1.59334800
H   -2.40578100  -0.96954700  -0.44299200
H   -2.20408100   1.37567500   0.43143600
H    1.55504200   1.93281200  -0.75922000
H    0.52428800   0.79243300  -1.66148200