19

N    3.40459000   1.82377500   2.40339000
C    2.86649700   1.88425900   1.13671200
C    3.40932100   0.95342100   0.08673800
C    4.91775000   1.03806900  -0.12535800
C    5.65620500  -0.00932100  -0.49707300
C    5.58384300   2.37161300   0.12958600
N    4.68603000   3.49085700  -0.29773500
H    2.85772800   2.16818000   3.18377000
H    4.02841000   1.05795300   2.64036000
H    3.76423500   3.30183000   0.21195900
H    1.82435500   2.21208300   1.06183700
H    2.89666300   1.17536000  -0.86548500
H    3.14718700  -0.09786100   0.31055200
H    5.21094400  -0.99988400  -0.61783800
H    6.72892800   0.07677300  -0.68887400
H    6.54636700   2.46519500  -0.38867600
H    5.74335100   2.52978600   1.20646500
H    4.51210400   3.49032400  -1.30877500
H    5.04252100   4.41360500  -0.03009600