13

C    1.02253100  -0.01654200  -0.04745700
C    2.48885800   0.04503800   0.07981100
N    3.24836000  -0.99955300   0.35428400
C    4.62226700  -0.70822100   0.00982300
N    5.59057500  -1.49005800  -0.11188600
C    4.63753200   0.77069600  -0.07958600
C    3.34464600   1.21553700  -0.00393600
H    0.67675800  -1.03588600  -0.25765500
H    0.66806500   0.69037700  -0.80959400
H    0.59291800   0.29865000   0.92195300
H    5.36621900  -2.47647800   0.05680400
H    5.55803700   1.35710900  -0.10213900
H    2.99325900   2.24791200   0.01266600