21

C    3.09530300  -0.85428900   1.45231700
C    2.63803500  -0.29762400   0.11427500
N    1.23661400  -0.20576300   0.01891700
C    3.16409200   1.18280700  -0.14408700
C    4.75104600   1.30176900  -0.09310600
C    5.43712800   0.39109600  -1.09774500
N    5.01987900   2.66340800  -0.32801000
H    4.18599100  -0.97394900   1.48181900
H    2.64902300  -1.84417500   1.61716600
H    2.79839900  -0.19482800   2.28297800
H    3.00766500  -0.91371200  -0.71927600
H    0.69075400   0.09930800   0.82007500
H    0.78320000  -0.12390100  -0.88547700
H    2.72878300   1.84419500   0.61970100
H    2.82240000   1.51856200  -1.13444700
H    5.05288600   1.05614000   0.93624200
H    5.07428600   0.57795200  -2.12071500
H    5.26378600  -0.66628500  -0.85965100
H    6.52186100   0.56174900  -1.07657700
H    5.05047800   3.01951100  -1.27939900
H    4.87131300   3.35398500   0.40085900