15

C    1.05912800  -0.75479200   0.57761400
C    2.18796600  -0.31320300   0.02120200
C    2.42166600   1.12507700  -0.25505700
O    3.50332600   1.59008500   0.66962000
N    4.00041900   2.75583500   0.43877600
C    4.98849400   3.27242600   1.28502500
N    5.45445700   2.68433100   2.30657800
H    0.89335000  -1.82211900   0.73969500
H    0.25394400  -0.07717400   0.87806700
H    2.97450700  -1.00845800  -0.28647700
H    1.54701000   1.75537400  -0.03415200
H    2.80080200   1.31375700  -1.27256500
H    3.65918600   3.28037500  -0.37778700
H    5.32748400   4.26589400   0.96468900
H    5.04494400   1.76116500   2.48918800