16

C    0.92977100  -0.01765900   0.06916900
C    2.37877900   0.19914600  -0.02528700
C    3.17561800   1.06127100   0.89922600
C    4.20273700  -0.02731100   1.32084600
C    3.37859600  -1.24543100   0.99510600
C    3.78833400  -2.23703900   0.08413600
N    4.10650400  -3.02959700  -0.70797200
H    0.59470900  -0.92350300  -0.45395900
H    0.49732800   0.84105700  -0.49231300
H    0.53699300   0.03525700   1.09317600
H    2.83681000   0.00602900  -1.00579700
H    2.57826700   1.42016400   1.74742100
H    3.65132900   1.91202000   0.38742800
H    5.12193400   0.01231700   0.72374000
H    4.44942600   0.02231100   2.39262900
H    2.59369600  -1.55070200   1.69981900