20

C    1.71374900  -0.59220400  -0.77543800
C    3.03505100  -0.23724100  -0.08142500
C    3.20009000   1.22016700   0.13717400
C    4.28113900   1.95157100  -0.28385700
C    4.44148200   3.44049700  -0.08077900
C    3.20073900   4.30543200  -0.01595900
N    5.08652400   3.25337200   1.19678300
H    1.62058500  -1.68261700  -0.86022300
H    1.67142200  -0.16745800  -1.78817700
H    0.84730700  -0.22290400  -0.20744000
H    3.89644900  -0.64734600  -0.62935700
H    3.04254000  -0.70504500   0.92287800
H    2.37030900   1.73469600   0.63874300
H    5.13489500   1.43250300  -0.73290400
H    5.16841300   3.84689100  -0.79579400
H    2.49450200   3.96740800   0.75641100
H    2.68703500   4.28493400  -0.98644700
H    3.47940800   5.34405100   0.20660500
H    4.52974600   3.16484200   2.04559700
H    6.07678800   3.02802800   1.26946000