12

N    0.98709800  -0.03393400  -0.33058600
C    2.13032100  -0.01344600  -0.17765700
C    3.57995500   0.00323000   0.03752900
C    4.14878200  -1.26797500   0.70738800
O    4.93514600  -0.76546300   1.82457100
C    4.82922700   0.50452100   1.95310700
C    4.02252800   1.08918700   0.96594700
H    4.06351400   0.17786700  -0.94734600
H    4.83301800  -1.85505200   0.08203500
H    3.38264500  -1.92809100   1.13814200
H    5.36197400   0.97466700   2.78560400
H    3.76987500   2.14856000   0.88361400