16

C    2.91618800  -0.49132700   1.44790700
C    2.41589600   0.07036400   0.08792100
C    2.84164300   1.46502900  -0.05856200
N    4.07593900   1.74971800  -0.50387600
O    4.25700900   3.02978300  -0.49643600
C    3.10015900   3.77949800  -0.01688800
C    2.09228900   2.69306700   0.29690600
H    2.58968000  -1.53655700   1.52147100
H    2.49008000   0.06547000   2.29365000
H    4.01215200  -0.46340700   1.50825400
H    1.32033300   0.00875200   0.03590600
H    2.85955400  -0.52205300  -0.72702700
H    2.82861800   4.46595500  -0.83197200
H    3.45965400   4.36527700   0.84167800
H    1.16104600   2.75304600  -0.29369900
H    1.77966400   2.65386700   1.35572300