20

C    1.09297400  -0.49493500   0.08091700
N    2.33505200   0.16380100  -0.14786300
C    2.71947000   1.45852500   0.33675600
C    2.03460600   1.88984600   1.62246200
C    4.25821700   1.48381600   0.38216700
O    4.69716100   0.76465900  -0.72576900
C    6.09731400   0.76539900  -0.93913900
H    1.02055400  -1.39778000  -0.53425000
H    0.25724600   0.19299800  -0.13480900
H    1.01359400  -0.76365700   1.15121300
H    3.07395500  -0.25067300  -0.74285800
H    2.41697200   2.14257100  -0.49181200
H    2.25974300   1.19467000   2.44461000
H    0.94562500   1.97281200   1.50753400
H    2.40947500   2.88284300   1.90477500
H    4.60724900   1.02897400   1.33028900
H    4.59885900   2.53427500   0.36440800
H    6.28932200   0.16104000  -1.83259100
H    6.62818200   0.32500000  -0.07878700
H    6.46517700   1.79042900  -1.10927500