20

C    1.57969000  -0.30338400   0.49059700
N    1.87495500   0.66969800  -0.51566300
C    2.55555800   1.88794400  -0.28794700
C    4.12275300   1.66538800  -0.32277500
C    4.81375000   2.98141500  -0.10819000
C    6.17838300   3.19499700  -0.72274900
C    4.99641400   3.94468500  -1.25307500
H    2.20172300  -1.20338700   0.32796200
H    0.52722800  -0.62034400   0.39496900
H    1.76596700   0.10911900   1.48862000
H    1.69677100   0.40016100  -1.48733000
H    2.28237200   2.28183800   0.70178700
H    2.29695800   2.60816200  -1.07694600
H    4.39206200   1.23207700  -1.29838300
H    4.38279800   0.93752200   0.46143800
H    4.65682700   3.42035400   0.88228400
H    6.59695100   2.39257700  -1.33544700
H    6.91472100   3.72940100  -0.11927900
H    4.91429500   5.01232300  -1.03978100
H    4.61504700   3.65157100  -2.23634800