14

O    1.25270100  -0.06307300   0.40666800
N    2.47139200   0.02807900   0.01983600
C    3.22056800   1.25926800  -0.04448400
C    4.47374000   0.82079100  -0.83117300
C    4.60142000  -0.70463000  -0.64273500
C    3.22277800  -1.18241900  -0.32579800
O    2.64394600  -2.21891800  -0.26691300
H    1.02099600  -1.02839600   0.36482300
H    3.43462600   1.58341900   0.99097600
H    2.61400700   2.04058000  -0.52707400
H    4.34081900   1.06148000  -1.89474500
H    5.36263100   1.35575000  -0.47904500
H    5.00005000  -1.23927900  -1.51565700
H    5.24253900  -0.97487400   0.21498300