17

C    0.99455900   0.31372500   0.38327100
C    2.35130900  -0.15154200  -0.15885900
N    2.27800300  -1.44429600  -0.80139000
C    2.96713200  -1.57177300  -2.05680700
C    3.33246600  -0.14811100  -2.39934300
N    2.14790100   0.68773200  -2.44042000
C    2.96266200   0.71487000  -1.24170300
H    1.14152900   1.26363000   0.91337600
H    0.57091600  -0.40996000   1.09324400
H    0.30404500   0.47033900  -0.45586000
H    3.04735900  -0.28365500   0.69931300
H    1.80543800  -2.23743000  -0.35860000
H    3.83070400  -2.25319700  -1.91890600
H    2.29767400  -2.04920700  -2.79622800
H    4.20001200   0.05039300  -3.03200400
H    2.26489100   1.51543300  -3.02295100
H    3.53829500   1.59851100  -0.95723700