13

C    0.91993000   0.07467000  -0.00087800
C    2.28552900  -0.05088700   0.00192200
O    3.06281000   1.05256800   0.00711200
C    4.35401900   0.65940800   0.00887200
C    5.35439800   1.59741100   0.01402800
C    4.41233500  -0.77148300   0.00466900
C    3.11858200  -1.21574200   0.00033500
H    0.45346700   1.06234000   0.00104800
H    0.29222300  -0.81779300  -0.00505500
H    6.39796700   1.27884200   0.01545600
H    5.11568500   2.66328800   0.01672800
H    5.32676500  -1.36266700   0.00499100
H    2.76025200  -2.24397600  -0.00360700