12

C    1.08973000  -1.81961800   1.58066400
C    1.76450700  -1.71296400   0.42292400
C    3.10844000  -1.21231600   0.46784500
O    3.95512700  -0.82305900   1.14317800
O    3.59451200  -1.27648500  -1.23164500
N    4.60271500  -0.60216800  -1.48440500
C    5.85036300  -0.70953700  -1.32245800
H    0.06270800  -2.19372100   1.58161900
H    1.53088000  -1.54128600   2.54213200
H    1.35506800  -1.97899800  -0.55212700
H    6.47928600   0.12663000  -1.64138900
H    6.27842000  -1.63315000  -0.90708900