20

C    0.89856900  -0.03268000  -0.07033200
C    2.41485000  -0.13986000  -0.17719900
C    3.11489500   1.15238300   0.27982200
C    4.59205600   1.06171400   0.13936300
N    5.47152600   1.69214700   1.01538700
C    5.67961500   0.31754100   1.20145800
C    6.77630200  -0.43214200   0.51832300
H    0.42512700  -0.96756900  -0.39896800
H    0.51008200   0.78104100  -0.70049500
H    0.58032900   0.15683700   0.96571100
H    2.70678800  -0.35646400  -1.21780400
H    2.77662600  -0.98376800   0.43316500
H    2.84316100   1.40033800   1.31877500
H    2.77354300   1.99356700  -0.35149900
H    5.00109800   0.80099300  -0.84504400
H    5.06765200   2.23102800   1.78715500
H    5.31511300  -0.08597900   2.15476200
H    7.11292500   0.05793300  -0.40369400
H    6.46405700  -1.46406400   0.30855700
H    7.62311900  -0.47783900   1.22377700