16

C    0.89623000   0.06441500   0.15027000
C    2.39924900  -0.11296000   0.05508700
N    3.20613300   0.84568400   0.78552300
C    4.07470000  -0.11198800   1.39150800
C    3.14684100  -1.22765000   0.87361600
C    3.87028400  -2.27865800   0.04362100
O    4.99007900  -2.09098800  -0.33716300
H    0.41412800  -0.77918300  -0.36281100
H    0.57671700   0.98876200  -0.35142900
H    0.55949400   0.07839300   1.19592600
H    2.72465300  -0.10238800  -1.00633100
H    3.04818600   1.83902000   0.98960000
H    5.05978700  -0.15828900   0.86787700
H    4.25319700   0.04581700   2.46719800
H    2.49360700  -1.66096400   1.64445600
H    3.30427900  -3.20316100  -0.20728200