15

O    1.31788800   0.08657700   0.71371000
C    2.37721200   0.09249700   0.06061100
C    3.03178700  -1.28714500  -0.03448300
C    3.99955900  -1.29736600  -1.21972600
C    4.88314300  -0.05683900  -1.18551700
C    4.04289900   1.19210300  -1.31442100
O    2.84729000   1.15239000  -0.43764600
H    2.25108300  -2.05899900  -0.08812900
H    3.54817300  -1.40583100   0.93449200
H    4.59850400  -2.21611300  -1.12603000
H    3.44584900  -1.37054400  -2.16849800
H    5.47438900  -0.02959600  -0.25650800
H    5.60063800  -0.06086500  -2.01845700
H    4.55368500   2.10847900  -0.99956800
H    3.62246100   1.33246500  -2.31894500