15

C    0.95582800  -0.06203100   0.02016100
O    2.37204700  -0.00037800   0.02008600
C    2.88583000   1.26310800   0.00642800
C    4.32627900   1.28468800   0.00586100
C    5.56290300   1.32408300   0.00473800
C    6.94461100   1.33507300   0.00425700
C    7.66376400   2.51307500  -0.00757100
H    0.68913500  -1.12394400   0.03212800
H    0.53778200   0.40731500  -0.88638200
H    0.53698100   0.42781700   0.91541900
H    2.56973300   1.89218800   0.87764100
H    2.57012400   1.87299300  -0.87857000
H    7.46075600   0.36789700   0.01368000
H    7.16330100   3.48551600  -0.01706200
H    8.75690300   2.49296600  -0.00762600