19

C    1.10152400  -0.03552600  -0.12915900
C    2.63105500  -0.09132300  -0.15937100
C    3.19968700   1.26570900   0.23171100
C    4.79663600   1.21842400   0.13978500
C    5.41872600   1.29277100  -1.24868500
C    5.80826300   2.70306300  -0.81445900
O    5.29172800   2.46371400   0.50558400
H    0.69750800  -1.02031300  -0.40449700
H    0.70718300   0.70174700  -0.84333100
H    0.72641000   0.21578300   0.87312000
H    2.97341600  -0.37470800  -1.16715700
H    2.99451100  -0.86330000   0.53661900
H    2.95226500   1.54344200   1.26630900
H    2.87184200   2.07129700  -0.44356400
H    5.08935300   0.45016800   0.88236700
H    4.73208000   1.20906100  -2.10058400
H    6.26860900   0.61107100  -1.39359700
H    6.87784700   2.96747200  -0.72662500
H    5.28202000   3.56538200  -1.26342100