21

C    1.12050300   0.28916700   0.08602100
C    2.65246600  -0.04406000   0.03164500
C    3.03843700  -0.89524500   1.24203200
C    2.95255900  -0.77946300  -1.29221500
C    3.24880900   1.31001000   0.00427800
C    3.96137500   1.99558000   1.11173800
C    5.05792100   1.47665600   0.27899200
H    0.78830300   0.86017800  -0.79212500
H    0.85385600   0.83895000   0.99949800
H    0.58606700  -0.67236400   0.09237100
H    2.74570900  -0.42827800   2.19382700
H    4.11585900  -1.11893400   1.27140500
H    2.51792600  -1.86095400   1.18494600
H    2.67664400  -0.17482800  -2.16844200
H    2.37059700  -1.71104200  -1.32634700
H    4.01745200  -1.04367100  -1.36855200
H    3.03200800   1.91156100  -0.88735000
H    3.86020500   1.51160800   2.08888600
H    3.85443600   3.08686500   1.10583800
H    5.49598300   2.07790000  -0.52245100
H    5.50633000   0.50168200   0.48721600