17

C    1.16606100  -0.18182000  -1.12182600
C    2.20101900   0.10302300  -0.02014000
C    3.42261100  -0.82883100  -0.09531700
C    2.63175200   1.53686000  -0.06207200
N    2.43669800   2.38437600   0.90524800
N    3.27226100   2.01269500  -1.17313300
O    3.65109300   3.20779800  -1.24804700
H    0.30643500   0.50037100  -1.06541500
H    0.79385800  -1.20761200  -0.99771100
H    1.60337400  -0.11449900  -2.12967000
H    1.71549800  -0.03897600   0.95774600
H    3.92275600  -0.77923500  -1.07455600
H    3.08391700  -1.86426600   0.04384100
H    4.16010700  -0.60475800   0.68788700
H    1.96797000   2.10546500   1.76231800
H    3.44973700   1.38175800  -1.96424000
H    2.76154500   3.34832600   0.80044900