17

C    0.93027000  -0.01044700   0.57655700
C    2.25116800  -0.03258700  -0.17580500
C    3.28529500   1.01621700   0.31125900
C    4.08235800   0.03433400   1.15097100
N    5.42221600  -0.06040300   1.05731700
C    3.16626700  -1.18725900   0.18652200
H    0.29806000  -0.85978400   0.28214300
H    0.38058800   0.91467800   0.35315200
H    1.07893300  -0.05857000   1.66739500
H    2.08427600   0.02512900  -1.26164100
H    2.86431100   1.84099700   0.90639500
H    3.89164700   1.43219600  -0.50585800
H    3.70548400  -0.18484100   2.15926700
H    5.92864800   0.34080000   0.26994800
H    5.96490300  -0.61214300   1.71873400
H    3.85413000  -1.54610200  -0.58757700
H    2.82992600  -1.97562400   0.87180800