21

C    0.88272200  -0.21326600  -0.48990600
C    2.36061000  -0.22797700  -0.48542800
C    3.08325400   1.65245400  -0.31704200
C    2.50549000   2.29874200  -1.53806600
O    2.49159500   2.04989100   0.79397200
C    4.56457400   1.36675100  -0.24850900
C    5.37631000   2.67077200  -0.16646700
H    0.57065800  -1.27662600  -0.46206400
H    0.45283200   0.22141700  -1.40085400
H    0.45913400   0.26357700   0.40419300
H    2.87577900  -0.47693400  -1.42014700
H    2.85072300  -0.62495300   0.41075600
H    2.81114000   1.78606500  -2.45776800
H    2.90319900   3.32765600  -1.56939800
H    1.41334200   2.37520300  -1.47777300
H    3.00805200   1.83480000   1.58684100
H    4.86770000   0.79338700  -1.13520400
H    4.77776700   0.73887000   0.63261400
H    5.27705700   3.26837700  -1.08249200
H    6.43794100   2.42013000  -0.04215200
H    5.07044700   3.28878200   0.68968900