17

C    2.39838100   1.80002500   1.91264800
O    2.91183000   0.76506400   1.12815800
C    3.07361400   0.95148500  -0.21499500
C    4.54311800   1.50342300  -0.50795000
C    4.70731600   2.96270800  -0.23496900
C    5.27208200   3.52239600   1.03680400
O    6.05428000   3.31946500  -0.09681200
H    2.15600200   1.38796500   2.89840900
H    1.53251600   2.28141600   1.43063900
H    3.20295500   2.56222100   2.02441700
H    2.33215100   1.64660700  -0.64201000
H    3.04019600  -0.04156800  -0.68614900
H    4.66135000   1.29330600  -1.58426900
H    5.28417800   0.90847000   0.04366200
H    4.09300200   3.65046800  -0.83409400
H    5.52056200   2.88529400   1.89503000
H    5.01939100   4.56576100   1.26148800