16

C    0.92221300  -0.07084600   0.04501000
C    2.38669800   0.01153200   0.09374800
C    3.11756500   1.16637400  -0.14601900
C    4.49651600   1.18251600  -0.07863600
C    5.72856800   1.22533300   0.00547800
C    7.17252900   1.23242200   0.03842400
N    7.78495000   2.50160300  -0.15336100
H    0.62533300  -0.85048400  -0.67967400
H    0.43701000   0.87932900  -0.20824200
H    0.54704100  -0.43651000   1.01817700
H    2.94226000  -0.90202600   0.33839300
H    2.60249900   2.10224500  -0.39314500
H    7.45023700   0.43452000  -0.70109700
H    7.47476600   0.78908500   1.00766200
H    7.59850900   2.92933500  -1.05535400
H    8.78273200   2.48974500   0.03196900