17

O    2.90083800   3.91627200  -0.86846200
C    2.82344900   2.90086200  -1.82432500
C    3.26310800   1.60749000  -1.13464900
C    4.47093500   1.76989000  -0.30129800
C    5.49891000   0.72302600  -0.09025400
C    6.13987300   1.51451200  -1.16142900
O    7.05589900   2.41476200  -0.98046300
H    2.51614100   4.72833600  -1.21156900
H    3.48491500   3.09384600  -2.69176000
H    1.80204200   2.75759200  -2.21673400
H    3.34451500   0.76768700  -1.84134500
H    2.47646800   1.32390800  -0.40221300
H    4.54602100   2.70491100   0.26623100
H    5.20810800  -0.28714700  -0.40467900
H    6.01582800   0.75051500   0.87763900
H    5.91171500   1.33414000  -2.21677800
H    7.35765600   2.49824600  -0.06132600