17

C    2.15506100   0.00656100   1.39699100
C    3.02737800   1.00649400   1.22941800
C    3.71897500   1.31825000  -0.07830000
C    5.17375600   1.01367900   0.13661000
C    5.56415000  -0.32806700   0.20619400
C    6.17676900   2.00393500   0.36127400
C    5.94920600   3.35416400   0.35298500
H    1.67387800  -0.16162900   2.36313900
H    1.87034400  -0.65882500   0.57600600
H    3.29241000   1.64757100   2.07761200
H    3.55480300   2.36020900  -0.38308600
H    3.32380700   0.67800400  -0.88136300
H    4.83123700  -1.13159700   0.09027500
H    6.60962600  -0.60894500   0.36307000
H    7.19284400   1.65127600   0.56327400
H    4.95966900   3.78480800   0.18042100
H    6.77024700   4.05407400   0.52885600