16

C    0.67796200   1.21011500  -0.21845900
C   -0.81512800   1.20684500   0.39512400
N   -1.44387900   0.00042100   0.02049600
C   -0.81608700  -1.21114500   0.37982900
C    0.67700400  -1.20783300  -0.23375500
N    1.30576900  -0.00142900   0.14081700
H    0.57592700   1.29434900  -1.31052200
H    1.22174000   2.07967600   0.17124400
H   -1.35826200   2.08170000   0.01654100
H   -0.71301900   1.27715100   1.48817100
H   -1.97541300   0.00611900  -0.84710100
H   -0.71403900  -1.29535300   1.47189900
H   -1.35991100  -2.08070900  -0.00979000
H    1.22008900  -2.08268600   0.14491200
H    0.57490500  -1.27816400  -1.32679600
H    1.83826200  -0.00712500   1.00782100