20

C    2.72631500  -0.23929600   1.42333300
C    2.55995900   0.31199600  -0.00621500
C    2.79060600   1.79033200  -0.03900600
C    1.63179300   2.66761700   0.28288400
C    4.04690000   2.26527400  -0.37437700
C    4.44602700   3.70802200  -0.43687500
N    4.84469800   3.78311800   0.94184400
H    2.53662600  -1.32090200   1.41924700
H    2.01699000   0.22398100   2.12409500
H    3.74641500  -0.07506300   1.79927700
H    1.54129400   0.09711000  -0.36352200
H    3.26385300  -0.19955000  -0.67916200
H    0.92023000   2.62419400  -0.56068900
H    1.87965500   3.72069100   0.46237800
H    1.08630100   2.27425900   1.15434100
H    4.85365900   1.54036100  -0.52566100
H    3.63561400   4.41021600  -0.66116600
H    5.29031300   3.89806200  -1.10860800
H    4.15736500   3.94123300   1.67398900
H    5.75538400   3.44244900   1.23982200