20

C    0.98256400  -0.40517800  -0.13918800
C    2.48506200  -0.65956500  -0.17831300
C    3.28376300   0.65131800  -0.07509500
C    4.76421300   0.36993900  -0.10099900
O    5.19717900  -0.03993700  -1.29963700
C    5.53656000   1.97600700   0.24060700
N    6.88830000   1.91183200   0.26221600
H    0.43294100  -1.35312200  -0.21924300
H    0.66419400   0.23857000  -0.97259300
H    0.67902600   0.07914800   0.80108800
H    2.76203900  -1.16856900  -1.11425800
H    2.77375900  -1.33060800   0.64780500
H    3.02215800   1.17516000   0.85691100
H    3.02680600   1.31211900  -0.91845000
H    5.14155700  -0.21917200   0.75193300
H    5.98030700  -0.60183200  -1.23885300
H    5.08437400   2.19984900   1.21382100
H    5.12598500   2.53921400  -0.60552500
H    7.40237700   1.72866700   1.11994500
H    7.43819700   2.02311500  -0.58569000