13

O    2.49867900  -1.13219700   0.04068200
C    2.12755800   0.05660400   0.00479200
C    2.92834900   1.19650200   0.00423500
C    2.40867100   2.49051800  -0.03856300
C    3.47537600   3.43148600  -0.02705800
C    4.65650700   2.74287300   0.02243100
C    4.42618900   1.27566000   0.04680200
H    1.01545100   0.14497600  -0.03016800
H    1.34694600   2.74721300  -0.07536200
H    3.35671700   4.51368600  -0.05355400
H    5.65185300   3.19099900   0.04228400
H    4.91378600   0.77931200  -0.81220000
H    4.86164200   0.81682000   0.95335900