11

C    0.95543800  -0.00049100   0.00133800
C    2.37723800   0.02896900   0.00131200
C    3.62656400   0.04695600   0.00072300
C    5.06356300   0.06312600   0.00000500
C    5.66673600   1.39359600  -0.00035900
N    6.14356000   2.44397100  -0.00064500
H    0.51478600   1.00624000   0.01170800
H    0.60862400  -0.59492000   0.87157500
H    0.61073800  -0.57297600  -0.88477500
H    5.41209600  -0.53721900  -0.87041500
H    5.41301300  -0.53721200   0.87005300