15

C    0.94113400   0.03277800  -0.04040200
C    2.38250000  -0.05950600   0.02947100
C    3.60717500  -0.14711900   0.10988600
C    4.97467800  -0.25217600   0.21936600
C    5.86695900  -0.68455200  -0.91934500
C    5.99134600   0.75325400  -1.15819100
O    6.96013900   1.50181700  -0.75007100
H    0.60243600   1.00708700   0.34467700
H    0.49414600  -0.74973200   0.59425900
H    0.58132500  -0.09931400  -1.07024600
H    5.44664400  -0.04037200   1.18546500
H    5.33897800  -1.22725500  -1.71179200
H    6.78591300  -1.19070700  -0.59660100
H    5.22888500   1.29594100  -1.72633200
H    7.69753000   1.01412300  -0.34816200