14

O    1.60421000  -0.24323400  -0.14215300
N    2.82308500   0.18796200  -0.21986200
C    2.91856500   1.54106200  -0.15410900
C    1.74894800   2.37645100  -0.01150700
C    1.78639700   3.72396700   0.05868800
C    4.26665900   2.03254200  -0.23927000
C    5.34981300   1.22101800  -0.37361900
H    1.64654100  -1.21525700  -0.19863100
H    0.78632600   1.86633100   0.04067500
H    2.70864000   4.30806900   0.01379300
H    0.85869400   4.29127900   0.16658500
H    4.41736800   3.11202300  -0.19289900
H    5.25340200   0.13426900  -0.42465100
H    6.35274600   1.65008100  -0.43357900