12

C    1.02440400  -0.06233300  -0.16192800
C    2.40763400  -0.00173600   0.06834600
N    3.19346600  -1.06321200   0.23161500
C    4.56397300  -0.63608400   0.44883300
O    5.46268400  -1.39113000   0.62202400
C    4.50372800   0.85482200   0.39471400
C    3.23139800   1.21805400   0.17045500
H    0.49994400  -1.01949000  -0.22158700
H    0.45480900   0.86133900  -0.28482800
H    2.91567900  -2.04413300   0.21406500
H    5.38481600   1.48182800   0.52403200
H    2.82455300   2.22371400   0.07244800