17

C    1.56118900   0.36805400   1.25653300
C    1.93696600   1.54551600   0.75371700
C    2.81784300   1.67261200  -0.44223000
O    4.08939600   2.36531000  -0.14650500
C    4.72325600   2.14548200   0.94932600
C    6.00592500   2.85366300   1.19004900
C    5.04950400   3.69357000   1.92887400
H    0.86712300   0.30809200   2.09808700
H    1.90653900  -0.57956500   0.83076600
H    1.55142800   2.47871200   1.17981000
H    2.38308700   2.30066500  -1.22858000
H    3.09894100   0.70048400  -0.87257700
H    4.33963800   1.38585300   1.64430800
H    6.43370700   3.29543100   0.28372800
H    6.70905700   2.27980600   1.80469400
H    4.83284900   3.51719200   2.98597700
H    4.58389800   4.55292100   1.43914800