14

O    1.75935500   1.19872200   1.35541300
N    2.85505800   1.81667600   1.02184200
C    2.70941500   2.38978400  -0.17812800
O    3.66125300   3.04698900  -0.69733000
C    4.93760000   3.25633100  -0.11780000
C    6.05562100   3.34600300  -1.12565900
C    5.55550800   4.58521900  -0.47208100
H    1.91181200   0.79895900   2.23241700
H    1.78270700   2.32561900  -0.76485600
H    5.05960900   2.78985200   0.85981100
H    5.78940900   3.17382500  -2.17106600
H    7.00490600   2.90876700  -0.80720000
H    6.13947600   5.05379000   0.32363900
H    4.94431800   5.26813900  -1.06663400