13

C    1.67480300  -0.32084600  -1.25819100
C    2.12670800   0.24585300  -0.14230900
C    3.23810600   1.24154400  -0.10505000
O    3.70741200   1.61402100  -1.40201700
C    3.52573000   2.89456300  -1.57160800
C    2.95833800   3.43640200  -0.42029100
O    2.78970700   2.49755000   0.46151300
H    0.86858400  -1.05563000  -1.20986100
H    2.09069700  -0.09870900  -2.24386800
H    1.72722800  -0.00406300   0.84485200
H    4.10678600   0.91701200   0.49354100
H    3.81803700   3.35605900  -2.51560900
H    2.66168000   4.45896700  -0.18175600