22

C    0.94749900   1.53529700   0.96079300
C    2.44496400   1.74718600   1.14972700
C    3.24675600   1.21506000  -0.04004000
C    4.77378200   1.44256000   0.06180300
C    5.44169100   0.81722400   1.28458700
C    5.43741500   0.84305400  -1.26610700
N    5.06086300   2.82269000  -0.01168600
H    0.38991200   1.91491000   1.82782500
H    0.70718200   0.46688400   0.85313800
H    0.57511100   2.05723200   0.06645300
H    2.77119700   1.24682400   2.07462700
H    2.65698800   2.82292300   1.28683100
H    2.88041500   1.67113900  -0.97644500
H    3.09249900   0.13088400  -0.15202600
H    5.07076400   1.26949800   2.21430100
H    6.53590700   0.92632200   1.24773300
H    5.21238000  -0.25604300   1.31100000
H    4.97828100   1.27031000  -2.16642000
H    5.22892700  -0.23503400  -1.22040600
H    6.52126300   1.01247200  -1.26946200
H    4.51421600   3.44083600  -0.61783200
H    5.87781500   3.23205900   0.44999400