10

C   -0.76865600   1.11930200   0.03069700
C    0.66026700   1.19147300   0.03327300
N    1.31050900   0.06580000   0.03556600
C    0.77698900  -1.11964900   0.03572500
C   -0.65195200  -1.19180900   0.03314900
N   -1.30220400  -0.06615000   0.03085600
H   -1.37638100   2.03159900   0.02869000
H    1.17300100   2.16035100   0.03328700
H    1.38471100  -2.03195000   0.03773200
H   -1.16466400  -2.16069900   0.03313500