13

O    0.91685000  -0.15135700  -0.12737600
C    2.09496800  -0.00558600  -0.00760700
C    2.82413500   1.30852300   0.21665300
C    4.26884300   1.25646700  -0.27524000
N    4.87683500   0.02152800   0.21852700
N    4.28215200  -1.10882900   0.13706600
C    3.01509100  -1.21053700  -0.12893800
H    2.26690700   2.10251800  -0.29879400
H    2.78576200   1.52511700   1.29776500
H    4.86990500   2.09701100   0.09223700
H    4.33209700   1.25137900  -1.37766800
H    5.78803200   0.00819600   0.68610500
H    2.61989400  -2.17335200  -0.47026000