15

O    0.99974600  -0.01690900   0.14449400
C    2.30165400   0.11565200  -0.00433800
C    2.97209800   1.12684300   0.88874100
C    4.39824300   0.64283500   1.13851100
C    4.27574400  -0.83693300   1.48937000
C    3.15904500  -1.40774600   0.66107300
O    2.73559600  -2.44380200   0.36315000
H    0.56894700  -0.46784300  -0.59831900
H    2.69206200   0.01502600  -1.03390500
H    2.39372700   1.20560200   1.82257500
H    2.93399100   2.10904000   0.39079700
H    5.01930800   0.76945600   0.23890200
H    4.88402200   1.20295700   1.94691500
H    5.16988500  -1.45847400   1.32820600
H    3.93905400  -0.99710300   2.53082400