17

C    0.94600700   0.01003600   0.32816100
C    2.37418100  -0.02157100  -0.03129200
C    3.16313000   1.08075600  -0.39647000
C    4.51768100   0.71445700  -0.60935100
C    5.24186200  -0.01496200   0.64232700
C    4.60926100  -0.82226600  -0.38546800
C    3.18735000  -1.27742300  -0.09599900
H    0.38660100  -0.74855900  -0.24348100
H    0.49250300   0.99710300   0.17967300
H    0.83494800  -0.27668000   1.38987900
H    2.76711800   2.08687400  -0.55376900
H    5.19502500   1.30702200  -1.22634000
H    6.32111600   0.15171700   0.61572800
H    4.76111900   0.13056400   1.61336100
H    5.23399100  -1.37741600  -1.09071000
H    3.09250700  -1.88647100   0.81785000
H    2.79182800  -1.90022100  -0.92024900