12

O    2.77514200  -1.08458500   0.01109600
C    2.17892000  -0.06634100  -0.00176700
N    2.89669700   1.19969700   0.00256400
C    2.36605900   2.45492400  -0.01062600
C    3.43382200   3.40244700   0.00008800
C    4.60954200   2.68680400   0.01989600
C    4.26178100   1.30414900   0.02129900
H    1.07950100   0.07077200  -0.01802200
H    1.28715000   2.62261800  -0.02657500
H    3.30819900   4.48421000  -0.00660700
H    5.62716300   3.07435800   0.03245500
H    4.88530000   0.40756900   0.03416000