13

O    1.10600200   0.12421900  -0.04871200
S    2.63558800  -0.11824900  -0.36163300
O    3.14203400  -1.11766100   0.52876200
O    2.88986600  -0.04458000  -1.77604800
C    3.34832400   1.57647500   0.36326500
C    4.77690800   1.44708800   0.34408700
C    5.54878100   1.82723400  -0.75161100
H    0.60115400   0.35398100  -0.85093400
H    2.89051800   1.57713300   1.36174800
H    2.91867200   2.30919500  -0.33359400
H    5.27112000   0.98319500   1.20577100
H    5.08232400   2.17162900  -1.68131700
H    6.64149000   1.78861600  -0.70756400