12

C    0.88258900  -0.26413300   0.13148200
C    2.33587500   0.13518700  -0.08336700
C    2.50665200   1.61454200  -0.25191900
O    1.82024700   2.54993800  -0.26245600
C    4.25738300   2.04129600  -0.50604500
O    5.02645700   1.17812800  -0.51215900
H    0.85034500  -1.35663200   0.24475100
H    0.25588600   0.01156800  -0.72650900
H    0.46863900   0.18863100   1.04173700
H    2.78954900  -0.31747500  -0.98351500
H    2.99876200  -0.14326000   0.75572600
H    4.35777500   3.14407500  -0.62888400