13

C    1.03264400   0.03506400  -0.06127400
C    2.51164800   0.01027300   0.08595800
C    3.20439500  -1.24504300   0.17138700
C    4.51603600  -1.43814100   0.47096600
N    3.08589100   1.21040800   0.19128200
O    4.33937000   1.29506800  -0.13323700
H    0.63900600   1.05681700  -0.02902400
H    0.56388400  -0.57601100   0.72647200
H    0.76842700  -0.42959700  -1.02636200
H    2.56800800  -2.12175500   0.01594900
H    5.19350600  -0.63229000   0.75730800
H    4.92834700  -2.45098300   0.45605800
H    4.64772400   2.17540000   0.15733700