18

C    3.26231600  -0.92689600   0.50719700
C    2.59240000   0.02836500  -0.47803300
O    1.24046300   0.27040000  -0.20381100
C    3.25091000   1.37945100  -0.44432100
N    2.44437500   2.50887300  -0.50596800
C    3.03876200   2.52145400   0.76487800
C    4.26650700   3.31501500   1.07278200
H    4.33029200  -1.04893800   0.27693500
H    2.79177000  -1.91781400   0.43522700
H    3.15258000  -0.56543100   1.53963400
H    2.73179000  -0.35711600  -1.50926700
H    0.72609200  -0.54287600  -0.24325100
H    4.30033000   1.46568600  -0.74655300
H    1.44000600   2.28076300  -0.54143500
H    2.35345200   2.30454400   1.59350800
H    4.87685600   3.51474100   0.18315400
H    4.86767100   2.81060700   1.84105500
H    3.93033500   4.27768500   1.49307600