12

O    1.45127400   0.32384600   0.53164900
C    2.38842100  -0.07902700  -0.03691300
O    2.60349000  -1.23349900  -0.65062300
C    3.90226500  -1.37361700  -1.20965500
C    4.57943400  -0.05540600  -0.93722300
C    3.94673200   1.37234400  -1.40086100
N    3.66390700   0.70318600  -0.20760900
H    4.42809600  -2.20590800  -0.71734100
H    3.81849000  -1.59010400  -2.28693200
H    5.66253600   0.04116300  -0.79345300
H    4.75368400   2.11597700  -1.39284800
H    3.13642400   1.49765300  -2.12925800