19

C    1.00852400  -0.11149300   0.92755200
C    2.44745000   0.01699700   0.47201300
N    3.11449900   1.26386600   0.79077100
C    2.39084300   2.37061300   1.36183700
C    4.52333600   1.46182300   0.48750400
C    5.27435100   0.28149700  -0.09063900
H    0.64302900  -1.09931400   0.61766300
H    0.35105800   0.63873700   0.46776500
H    0.91288500  -0.05536300   2.02087600
H    2.53162600  -0.10189900  -0.62643500
H    3.07450600  -0.79113100   0.88785600
H    1.57718000   2.67024100   0.68045200
H    3.06467200   3.21745700   1.53092600
H    1.92787400   2.06217700   2.31249600
H    4.98934100   1.81304100   1.42740100
H    4.56268000   2.33406200  -0.19400800
H    5.31517700  -0.56939400   0.60350100
H    6.30860100   0.60008800  -0.27649000
H    4.85791300  -0.05372100  -1.05027500