16

O    1.00133100   0.28487700  -0.52894000
C    2.16702600   0.08778600   0.02012100
C    3.06525000  -0.92166800  -0.56902900
C    3.60586700   0.33067000  -1.15299600
C    4.75125400   1.04231600  -0.63553100
C    5.82703400   1.46023800  -1.65355600
N    4.93622800   2.41832100  -1.09128500
H    0.50701500   1.01467900  -0.12489700
H    2.41180200   0.58963300   0.96355500
H    2.56609900  -1.59439700  -1.27503500
H    3.71875300  -1.42212600   0.15452000
H    3.16952000   0.69360100  -2.08996700
H    5.12885900   0.74050100   0.34831900
H    5.67172000   1.20806200  -2.70660500
H    6.85930600   1.37768400  -1.29639600
H    5.37804500   2.98303100  -0.36569400