17

N    2.39714100  -0.58120900  -1.24416400
C    2.44641300  -0.05643300   0.03389300
C    3.21964800   1.38013200  -0.00353600
C    2.48815400   2.58845800  -0.58435800
C    3.09352700   3.37964700   0.60439200
C    3.32652600   2.05581800   1.37566000
H    1.63744400  -0.35225300  -1.88651900
H    3.19076600  -1.08489500  -1.64242000
H    3.05767900  -0.68050200   0.70176300
H    1.44316800   0.13429700   0.43517400
H    4.20504200   1.21353900  -0.46316700
H    1.39445400   2.51211200  -0.48723100
H    2.74334900   2.89594700  -1.60682200
H    4.04008200   3.86472600   0.33260400
H    2.42975000   4.10753000   1.08920200
H    4.26723300   1.91026500   1.92179700
H    2.47963400   1.81906300   2.03555300