18

C    0.78710900   0.10318000  -0.16104300
C    2.22384500   0.17085600   0.21780000
C    2.61511800   0.02487700   1.64351300
C    3.35679700  -0.87555800  -1.01433000
N    2.80548500  -1.51647900  -2.03296800
C    3.24154300   0.60091400  -0.77705000
O    4.33969200   1.19940700  -0.21588700
H    0.61432300   0.15313100  -1.24427300
H    0.27553900   0.97080600   0.29304300
H    0.30298500  -0.79672000   0.24605000
H    3.69051500  -0.14547300   1.77628800
H    2.02997600  -0.75681600   2.14769400
H    2.38886700   0.98164700   2.15030400
H    3.98970000  -1.45169800  -0.33341000
H    2.32099600  -1.02783300  -2.77996900
H    2.84114800  -2.52961400  -2.09570600
H    2.80092400   1.13315400  -1.64003100
H    5.02824900   1.33710000  -0.87634300