10

C    2.05751300  -0.05009500   0.57271500
O    1.43608000   0.53219500  -0.69534600
C    2.11356400   1.62919300  -0.50057500
C    2.53894500   2.94600800  -0.81293000
O    3.37021500   3.26907200   0.12464100
N    3.56554300   2.19527800   1.13405700
C    2.79144000   1.28417200   0.68256900
H    2.65633600  -0.93217100   0.31332800
H    1.26712400  -0.24911000   1.30733300
H    2.33248100   3.67313200  -1.60239300