14

C    1.03376100  -0.13316000   0.27377600
C    2.50924900   0.12066400  -0.09781500
C    3.22940900   1.23636800   0.69776700
S    4.38221000   0.05304000   1.45393900
O    3.99374500  -0.37270300   2.76239600
O    5.71524700   0.10184800   0.94580700
N    3.36792200  -0.96423500   0.27212000
H    0.63373300  -0.99088500  -0.28271700
H    0.45912600   0.76126100  -0.00243600
H    0.93813500  -0.31206900   1.35343000
H    2.57690700   0.26704000  -1.19540900
H    2.63104200   1.73469000   1.47212300
H    3.79162300   1.96147100   0.09490600
H    3.31714500  -1.94525100  -0.04163000