17

O    2.56388800  -0.96986800   0.50483100
C    2.38602800   0.01079000  -0.48372000
C    3.02355900   1.25494300   0.11102000
O    2.64850100   1.41382500   1.45328600
C    4.50389500   1.12969500   0.41482100
C    5.53169500   1.90839600  -0.62519100
C    5.39690900   2.31760600   0.76078500
H    2.04815500  -1.76057900   0.31674300
H    1.32027100   0.21692000  -0.68219500
H    2.87765700  -0.24209700  -1.43897200
H    2.78117700   2.17088000  -0.44442500
H    2.49158700   0.50177300   1.78935600
H    4.80844500   0.14473700   0.78093900
H    5.01580200   2.45552800  -1.41781700
H    6.31946200   1.21576300  -0.93789900
H    6.19837800   2.08158400   1.46496700
H    4.84100600   3.24085900   0.95750000