13

C    1.00586300   0.05350200   0.00334700
N    2.45904300  -0.02541900  -0.00090800
N    3.21802000   1.03706300   0.20325600
C    4.58886100   0.67266400   0.14480200
O    5.49445300   1.45245600   0.29710900
C    4.55693700  -0.76528400  -0.12445700
C    3.23838400  -1.12824700  -0.20170100
H    0.67666400   0.74082200  -0.78899200
H    0.66385700   0.40927900   0.98570500
H    0.60812100  -0.94886400  -0.18679100
H    2.83065300   1.96394300   0.37389300
H    5.43729700  -1.39500000  -0.23605300
H    2.77165200  -2.09444400  -0.38571000