15

C    1.69136800  -0.72617200   0.20076800
C    3.17831200  -0.46083400  -0.01872200
C    3.46883400   1.02862900   0.09916200
C    4.91624000   1.47481300  -0.09131400
O    5.76731300   0.61551500  -0.29513800
C    5.30249000   2.83277900  -0.03672000
C    5.62453900   3.99966300   0.01172300
H    1.48879200  -1.80191100   0.11348700
H    1.07247200  -0.20930000  -0.54754400
H    1.36569400  -0.40605900   1.20152000
H    3.48408100  -0.81831800  -1.01413600
H    3.77585800  -1.01379300   0.72248300
H    3.21891500   1.44397100   1.09557400
H    2.92148600   1.64187800  -0.64282300
H    5.90792600   5.04304400   0.05579900