15

O    1.57695700   0.93406200  -0.93770900
C    2.09000200   0.35932500   0.22127000
C    3.32010800   1.15517500   0.60749400
C    4.23613600   1.72133900  -0.44441800
N    3.32738400   2.56197700   0.28249100
C    2.55105500   3.61003600   0.10804400
N    1.37120300   3.75139800   0.67891400
H    0.85270400   0.40732600  -1.29014600
H    2.42317600  -0.68607000   0.08521600
H    1.37295300   0.37070000   1.06345600
H    3.76761900   0.91617500   1.57948000
H    3.97922600   1.56994800  -1.49818700
H    5.29546600   1.85642000  -0.20169800
H    2.89202000   4.37123300  -0.60616400
H    1.22557500   3.19532600   1.53090700