19

C    1.81625200  -0.95143300  -0.91326800
N    2.38544100   0.36005800  -1.18240800
C    3.32650800   0.95830900  -0.46008800
C    4.03909900   0.20791000   0.61350900
C    3.66209900   2.37881500  -0.75528300
C    2.84220000   2.91089900   0.36220500
N    3.38375100   3.34174800   1.50872100
H    2.60361500  -1.71401800  -0.83821600
H    1.15307900  -1.22278500  -1.74183600
H    1.22875700  -0.94539500   0.01747500
H    2.01367600   0.86544900  -1.98045600
H    4.60212700   0.88767700   1.26342600
H    4.75754000  -0.49372300   0.15538400
H    3.35414600  -0.38027700   1.24082600
H    3.32160400   2.71275800  -1.74655600
H    4.73413900   2.59645300  -0.64836100
H    1.75374500   2.91066500   0.28333800
H    4.36997400   3.56638300   1.57909000
H    2.79986400   3.60404900   2.29384800