14

C    1.00249800   0.01961400  -0.05939900
N    2.46440700  -0.03779100   0.00017200
C    3.13297000  -1.19241100   0.02137200
C    2.54756400  -2.44674300  -0.06199300
C    3.17220300   1.22771100   0.04938600
N    4.35677000   1.44730100  -0.29312600
H    0.68371400   1.06486800   0.00936900
H    0.56681800  -0.54584800   0.77553800
H    0.65469600  -0.39322000  -1.01728000
H    4.21795800  -1.11481400   0.13401800
H    1.47173800  -2.59825200  -0.17210200
H    3.18605500  -3.33123700  -0.01704700
H    2.53227100   2.03626500   0.42575800
H    4.89072400   0.66605000  -0.68195500