18

C    2.30340500  -0.86363800  -0.23750400
O    3.18898300  -0.30253700  -1.20385700
C    3.20285100   1.00442100  -1.36304700
C    4.45743800   1.75585800  -0.16146700
N    5.63640000   1.12378000  -0.37301500
C    4.38565400   3.19717500  -0.45155500
C    3.50207300   4.01036500   0.13805700
H    2.30087700  -1.94563000  -0.40327300
H    1.28806200  -0.46107900  -0.36596900
H    2.66728900  -0.65159600   0.78116100
H    2.29686700   1.55497400  -1.06661400
H    3.65318600   1.30685700  -2.31501900
H    3.93262900   1.41723400   0.74463100
H    6.34675400   1.52461200  -0.97860900
H    5.76857900   0.15669600  -0.09579400
H    5.09046300   3.58975600  -1.19298400
H    2.78397000   3.64701700   0.88000100
H    3.47881700   5.07740500  -0.09227000