15

O    1.33425300  -0.03449800   0.59501500
N    2.39139100  -0.02151400  -0.17734900
C    2.92788400   1.21726300  -0.20584300
C    2.50399600   2.47240400   0.48538500
C    3.36359000   3.54514700  -0.21197500
C    4.53394000   2.77157100  -0.84336800
N    4.01211300   1.40402700  -0.91635800
H    0.98859900  -0.94425300   0.57316600
H    2.72862000   2.36127000   1.56038200
H    1.42016600   2.63152100   0.40500200
H    2.77726100   4.04322100  -0.99627900
H    3.71229500   4.31872100   0.48154100
H    4.81237100   3.11795500  -1.84753100
H    5.44315300   2.76301400  -0.22042900
H    4.46585900   0.64167900  -1.42156900