13

C    0.84351700   0.13738200  -0.00818300
C    2.31868000   0.02984100   0.00057200
C    3.26055400   1.08280400   0.00454900
C    4.57167500   0.65883100   0.01139300
C    4.66313500  -0.75945300   0.01285300
O    5.79644400  -1.37901700   0.01903200
S    3.09900000  -1.53107000   0.00561700
H    0.53646800   1.19026500  -0.00175700
H    0.40782200  -0.36700300   0.87027400
H    0.42075500  -0.35155800  -0.90177500
H    2.95022100   2.12845700   0.00233900
H    5.45949400   1.29194700   0.01542300
H    5.74275800  -2.34822700   0.01947200