18

C    1.10027200  -0.18043300   0.47552800
C    2.42373600   0.04100900  -0.26605300
C    2.50695700  -0.67596100  -1.59437100
N    2.82540600  -2.00780200  -1.59129500
C    2.65990800   1.53614200  -0.50301100
N    3.89604700   1.67855100  -1.33568300
H    1.08920500   0.33839000   1.44601300
H    0.95135600  -1.25237200   0.66000100
H    0.24935900   0.17990200  -0.12223900
H    3.24331700  -0.33119300   0.37897700
H    3.84585800   0.84167400  -1.98245400
H    1.76136400  -0.39564600  -2.35140700
H    3.46263600  -2.38397800  -0.89959400
H    2.73393400  -2.55078500  -2.44034300
H    2.77950400   2.11009100   0.42454400
H    1.83408400   1.97296400  -1.08261100
H    4.75453200   1.59148700  -0.78086800
H    3.94658700   2.55053000  -1.87172900