11

C    0.95586100   0.01347500  -0.01408300
C    2.44355000   0.00475400   0.03100200
C    3.19374900  -1.17587200   0.17075200
C    3.15991000   1.19511800  -0.08194400
C    3.79083100   2.24292800  -0.17771300
H    0.55073700   0.81077200   0.62715600
H    0.53351100  -0.95631100   0.27465400
H    0.63240300   0.24773700  -1.04448400
H    2.68988200  -2.14247400   0.26910400
H    4.28716400  -1.15093400   0.18526800
H    4.34625300   3.16763500  -0.26267100