17

O    2.82980200   3.31009100  -0.34830600
C    2.38229300   2.02126700  -0.08534500
C    3.36966400   1.31815400   0.82081800
C    4.80436200   1.26813900   0.12233900
C    5.62463500   2.55070600   0.16319100
C    6.44362900   1.79484600   1.20231900
O    5.67136700   0.60407500   0.98685900
H    2.26450300   3.73776700  -1.00041800
H    2.20339400   1.43530200  -1.00558400
H    1.43135500   2.01520800   0.49110900
H    3.05817100   0.28478100   1.02451200
H    3.50046000   1.85776900   1.77038400
H    4.65735600   0.68452700  -0.80674800
H    5.09038000   3.45236600   0.48615800
H    6.15690100   2.76285600  -0.77457400
H    7.50353900   1.56593700   0.98199800
H    6.38114000   2.08879600   2.26664600