19

C    0.73654000   0.02106300   0.60842800
C    2.18243800   0.20144900   0.75462900
C    3.01087600   1.10916700   0.05355300
C    2.52375600   2.08627000  -0.92218300
C    4.47158000   1.08329900   0.34727000
C    5.10467600  -0.25824000  -0.09870000
O    5.06777000   2.17552100  -0.25189300
H    0.52303300  -1.04725900   0.41958200
H    0.26547600   0.63668400  -0.16432800
H    0.25434200   0.22086900   1.58487700
H    2.67553800  -0.43361800   1.50148700
H    1.45802600   2.01822300  -1.15667100
H    3.14265100   2.01676900  -1.83546400
H    2.77276800   3.09637100  -0.54255300
H    4.55222400   1.12888200   1.46077400
H    5.00846100  -0.37186100  -1.18710700
H    4.65449100  -1.12618700   0.40060400
H    6.17151700  -0.24043500   0.16504900
H    6.02234300   2.15535100  -0.12333400