14

O    1.12936300  -0.00641700   0.95911600
C    2.15972200  -0.07852300   0.04331600
C    3.19720400   1.00446000   0.41368000
C    4.00409000   0.14522100   1.33412800
O    5.29468600   0.05898100   1.34497100
C    3.07507200  -1.26180300   0.25609800
H    0.42607800  -0.62907500   0.74113400
H    1.83043600   0.00706200  -1.01075100
H    2.72501400   1.86197000   0.92085700
H    3.78015800   1.34944700  -0.45264100
H    3.54718900  -0.18624300   2.27727000
H    5.72541500   0.51811400   0.60413300
H    3.81452300  -1.50493500  -0.51638600
H    2.79741500  -2.07522700   0.93684300