19

C    0.71772300  -0.06656300  -0.03983200
C    2.14053700  -0.38899800  -0.39913400
C    2.44067700  -0.72916000  -1.82877000
C    3.08365200   1.03203700   0.02745400
C    2.81183800   2.17002800  -0.91709200
C    3.48823300   1.00882400   1.43816900
O    4.33560400   0.67187000   0.29724900
H    0.59785200   0.26554700   1.00021500
H    0.15919500  -1.01631600  -0.13783100
H    0.25329200   0.65669500  -0.72326500
H    2.59415900  -1.10772000   0.29867500
H    1.97398100  -0.03650700  -2.54198100
H    2.00645300  -1.73021100  -2.00797100
H    3.51769900  -0.81413200  -2.02774600
H    3.29319600   3.06228000  -0.48667500
H    1.73561500   2.35218400  -1.01145500
H    3.25286200   1.97390500  -1.90250400
H    3.20876300   0.15372500   2.06041200
H    3.81191300   1.91961100   1.95051300