11

C    2.66221300  -0.75474400  -1.16535800
C    2.89999900  -0.12845600  -0.01164000
S    3.08286800   1.61289800  -0.01068600
O    2.79265000   2.22954200  -1.28414500
O    2.85491800   2.18952200   1.29253400
C    5.30971500   1.89342200  -0.05441300
O    5.96350000   0.97267000  -0.24646300
H    2.51794900  -1.83957700  -1.16351700
H    2.58913200  -0.22692400  -2.12126300
H    2.98547500  -0.56714800   0.98648700
H    5.43832500   2.98633000   0.12654600