16

C    0.33263100   0.38282200  -0.02243400
C    1.82468100   0.08833500   0.05889500
C    2.65089100   1.31036100  -0.15782100
O    2.34480800   2.43696600  -0.37661000
N    4.11797300   1.11756200  -0.09536400
O    4.63884800  -0.03040900   0.13229500
C    6.09130600  -0.10511100   0.17232600
H   -0.23066700  -0.54378200   0.14292900
H    0.05979300   0.78274400  -1.00800400
H    0.02970400   1.11293100   0.73973800
H    2.13727000  -0.66272700  -0.68784100
H    2.10756200  -0.33692700   1.03792600
H    4.72414900   1.94113400  -0.24078300
H    6.30476000  -1.15764400   0.37846700
H    6.45282900   0.53996200   0.98513300
H    6.48436300   0.19490100  -0.80899400