13

O    0.94549500  -0.00460300  -0.08931100
C    2.31451700   0.01038400  -0.03804800
C    2.94016000  -1.21697700  -0.60934500
C    3.99717500  -0.84391000  -1.43875100
N    4.05008800   0.48572200  -1.55570000
C    3.00848800   1.13262100  -0.82007300
N    2.69845800   2.34439000  -0.78445500
H    0.58884300   0.76084900   0.37888400
H    2.71395200   0.08550000   1.00555300
H    2.62426600  -2.23927000  -0.39840800
H    4.71021800  -1.48855300  -1.95579200
H    4.75471500   0.98155300  -2.10368800
H    3.23370900   2.97607400  -1.38474200