11

C    1.01800400   0.05916500  -0.07714900
C    2.23642900   0.00632700  -0.01690000
C    3.62754100  -0.04574200   0.10451600
O    4.40245000  -0.57251300  -0.89837300
C    4.49037600   0.77859800  -1.12238900
C    5.59554000   1.50867800  -0.67693400
C    6.54850600   2.18152100  -0.31605400
H   -0.06113900   0.09545000  -0.13280400
H    4.09507900   0.05240600   1.09342700
H    3.83410900   1.19721500  -1.89721100
H    7.39934900   2.76974200  -0.00130900