18

C    0.84506400   1.01669300  -0.32266200
C   -0.53394500   0.80370600   0.12520900
C    0.42636700  -0.41515600   0.10474500
N    0.88990500  -0.93240700   1.28621700
C    1.22306100  -0.35570700   2.58517100
C    1.60239100  -1.76883400   3.08056000
C    1.22843800  -2.29596400   1.67857800
H    1.06119700   1.10846500  -1.38974800
H    1.54549700   1.52812700   0.34217100
H   -1.33944700   0.73767500  -0.61005200
H   -0.83139900   1.16095200   1.11418600
H    0.28864500  -1.16634300  -0.67643600
H    0.35293000   0.12113300   3.06589800
H    2.03987800   0.38174200   2.51754300
H    2.65837900  -1.88892900   3.34709700
H    0.97454100  -2.14915800   3.89403200
H    2.04540000  -2.71013300   1.06498500
H    0.35928200  -2.97103900   1.61289900