19

C    0.94505300  -0.40679100   1.50780200
C    1.95987800  -0.58881600   0.38689000
C    3.22038600   0.26225500   0.62148600
C    4.25685300   0.08927100  -0.45346700
N    3.90633300   0.21826700  -1.74275400
N    5.47491800  -0.29499600  -0.17164200
C    6.54410900  -0.48284800  -1.14423100
H    0.05515300  -1.02211200   1.32047800
H    0.61819700   0.64060500   1.58899600
H    1.36199100  -0.71032500   2.47982400
H    1.50623200  -0.31676100  -0.58038800
H    2.25401700  -1.64722700   0.30505600
H    3.67458700   0.02078200   1.59499100
H    2.95614500   1.33412000   0.64330000
H    3.34808400   1.04736800  -1.97914900
H    5.69890100  -0.43246700   0.81232000
H    6.09733900  -0.69995100  -2.12461500
H    7.17178900  -1.32132700  -0.82120600
H    7.15835000   0.42575400  -1.21859100