14

N    0.48758400   0.60463400  -0.03305600
C    1.72399800   0.20798400   0.07830700
C    2.84562900   1.05542200  -0.09519800
C    4.19455400   0.45173400   0.08611700
O    4.27297300  -0.73440000   0.32928000
C    5.40389200   1.33738900  -0.08113400
O    6.56447900   0.75204500   0.35164400
H   -0.28693600  -0.04744700   0.09651200
H    0.24084000   1.57110900  -0.25118500
H    1.91190000  -0.84608300   0.31847400
H    2.72262700   2.11686000  -0.33756100
H    5.24396100   2.27679100   0.47730600
H    5.41222600   1.62906600  -1.15894700
H    6.58531500  -0.17628600   0.08839000