15

C    0.67902500   0.17051900  -0.15763000
C    2.06381500   0.12791400   0.36548200
C    3.09968200   0.82520700  -0.14892500
C    4.44412900   0.79381100   0.37569000
N    5.33989700   1.70232500   0.08542000
N    4.86793400  -0.21876300   1.20582600
O    6.02219900  -0.20981000   1.69632700
H    0.35521000  -0.84866100  -0.42534600
H    0.57498500   0.82542000  -1.03149000
H   -0.00720000   0.50745900   0.63631000
H    2.21267300  -0.51016300   1.24627200
H    2.93760500   1.50003700  -0.99412000
H    5.11251600   2.50270400  -0.49521700
H    4.25336200  -1.01734500   1.39792400
H    6.27913100   1.61208400   0.47553500