20

C    1.49309800  -0.07310000   0.50347700
O    2.16811200   0.65834500  -0.51041700
C    2.66736500   1.87662300  -0.28273100
C    2.90181300   2.60023400  -1.58507700
C    2.07615800   2.69162200   0.84234600
C    4.42592000   1.52008500   0.36324800
N    5.18885800   0.88904200  -0.54650500
H    1.24184200  -1.04325300   0.06305500
H    0.57187900   0.44055900   0.81272600
H    2.14115100  -0.22752100   1.38209300
H    3.33176800   1.92405300  -2.33466700
H    3.54291500   3.48172000  -1.45270500
H    1.92589600   2.94383900  -1.96275000
H    2.12307400   2.19071900   1.81840000
H    1.01570800   2.88215000   0.60718600
H    2.57952200   3.66354300   0.91851300
H    4.14068100   0.91053000   1.22800400
H    4.73576000   2.54476900   0.59450700
H    5.12113300  -0.11444800  -0.68567800
H    5.73505500   1.40491500  -1.22928600