13

O    1.17090100   0.07347600   0.75047700
C    2.39015200   0.01949300   0.24128400
C    2.57017700   0.77012300  -1.24194500
N    3.88415600   1.04118100  -1.54252000
N    4.67516900  -0.03945600  -1.59071400
C    3.92858900  -1.07782000  -1.35762500
C    2.52385300  -0.70774800  -1.08663400
H    1.15797300   0.45147700   1.64095100
H    3.26269500   0.13129400   0.89768900
H    1.76416000   1.45984100  -1.49756800
H    4.29578100   1.95902100  -1.70604600
H    4.35440300  -2.08186800  -1.34621500
H    1.66447800  -1.32099300  -1.37523200