18

C    1.08742100  -0.28299300   0.31166300
O    2.52190700  -0.14156900   0.33348900
C    3.05803800   1.02822400   0.33054900
C    4.45760400   1.16386700   0.33202600
C    5.34931300  -0.00619100   0.37691200
C    5.02284000   2.54968000   0.27889400
N    6.43630400   2.59749100   0.46350600
H    0.89215300  -1.35833800   0.28240000
H    0.68628400   0.20542000  -0.58640600
H    0.66693900   0.15884500   1.22491600
H    2.39756400   1.90771000   0.31645400
H    4.84484000  -0.94355700   0.11827600
H    5.76011800  -0.10458900   1.39992300
H    6.22923500   0.19257100  -0.25595600
H    4.42300300   3.18581700   0.97147300
H    4.76932100   2.94554900  -0.72562600
H    6.72504100   2.50177900   1.43339000
H    6.85811700   3.43541600   0.07687300