16

N    0.84358300   0.19048200  -0.60072000
C    2.11614600   0.25135300  -0.40773800
C    3.11767800  -0.76658700  -0.80159300
C    4.31797600  -0.34690100   0.08636600
C    4.28992300  -0.96894200   1.43940100
O    4.18553500   1.06858300   0.13094100
C    2.83922800   1.37770500   0.27569100
H    0.22011400   0.94453800  -0.31212200
H    0.40931400  -0.61503300  -1.05031900
H    3.35500700  -0.58353400  -1.86665600
H    2.76995000  -1.80368100  -0.69634100
H    5.27495100  -0.55265300  -0.42438700
H    4.11242700  -2.04169800   1.54762900
H    4.72951100  -0.42077700   2.27617000
H    2.61614600   2.35916900  -0.17434000
H    2.50063200   1.40148800   1.33415700