15

C    0.84966700   0.13617200   0.29438500
C    2.32247700   0.15049000   0.17272400
C    2.69993100  -0.81245100  -1.39287300
C    3.02160800   1.46709000   0.02009100
C    4.46618300   1.36846400  -0.15142800
N    5.59977100   1.22625900  -0.31731000
H    0.63840900   0.47560000   1.33521200
H    0.41672200  -0.87102800   0.22693300
H    0.34135600   0.83609200  -0.38341600
H    2.86522200  -0.59201900   0.78445100
H    2.16154200  -0.20412400  -2.12824900
H    2.27954400  -1.80126200  -1.18662900
H    3.79491800  -0.73581600  -1.38673100
H    2.81000200   2.01319300   0.96706900
H    2.57447500   2.09276600  -0.77130900