16

C    0.96564300  -0.02086500  -0.00793400
C    2.43865100   0.05152400   0.00041300
C    3.30465600   1.19042600   0.00461800
C    4.59752200   0.73258600   0.01091400
C    4.55076400  -0.70313500   0.01069600
C    5.66367200  -1.66979800   0.01494800
N    3.23930800  -1.05793800   0.00429200
H    0.52643700   0.98266600   0.00011800
H    0.60031100  -0.57675900   0.87148400
H    0.61057800  -0.55691300  -0.90393800
H    2.96269000   2.22346900   0.00306800
H    5.51348900   1.32039500   0.01549300
H    5.31802500  -2.71058900   0.02335100
H    6.30442900  -1.49461500   0.89434100
H    6.29882200  -1.50783300  -0.87126700
H    2.90164000  -2.01627000   0.00280400