15

C    1.83046300  -0.75575700  -0.91627200
C    1.79759900   0.14616600   0.34534600
C    2.67857300   1.32443400   0.17437800
C    2.22599800   2.50331800  -0.47785800
O    3.91586600   1.39996500   0.56875800
C    4.70881300   0.32810000   1.12786200
O    4.44290600  -0.80073500   0.97607900
H    1.12119400  -1.57838100  -0.75921100
H    2.82981900  -1.18196600  -1.06731900
H    1.52546200  -0.20717200  -1.81820600
H    2.08449100  -0.43967800   1.22708800
H    0.77433000   0.52511800   0.48898500
H    1.20259200   2.56094200  -0.85573000
H    2.90382000   3.35258900  -0.59940500
H    5.55963900   0.80467400   1.64161300