19

N    2.24628400  -0.60909700  -1.28113100
C    2.36335000  -0.00753500   0.02577200
C    3.22641700   1.26926400  -0.06437100
N    4.20109200   1.09702300  -1.00066300
C    2.30707800   2.66692500  -0.49914900
C    2.98538900   3.39838800   0.64743600
C    3.56799600   2.08109400   1.19675100
H    1.39184400  -0.34668300  -1.76671200
H    2.28973300  -1.62407200  -1.25477300
H    2.89891000  -0.68969000   0.70545700
H    1.40769900   0.24057100   0.51460200
H    5.01741200   1.69853500  -1.08587100
H    3.96475700   0.37739500  -1.70782200
H    1.26111200   2.37700400  -0.33708600
H    2.48182800   2.99037600  -1.53112500
H    3.75594000   4.10152400   0.30515000
H    2.30295100   3.92796900   1.32367900
H    4.63474200   2.08014700   1.45930200
H    2.99362400   1.69025000   2.04793600