15

C    0.90095400   0.49725400   0.29200300
C    2.33397100   0.27112800  -0.17012500
C    2.50522000  -0.14631100  -1.66652700
C    2.19210600  -1.53606500  -1.77036400
C    1.93816900  -2.73559700  -1.80858300
C    3.21349500   1.53738000   0.01077900
O    3.99908100   1.93670500  -0.77820400
H    0.86732800   0.78917200   1.35129100
H    0.32591900  -0.43405400   0.20121600
H    0.40090000   1.26976100  -0.30936000
H    2.84101100  -0.45063300   0.50088300
H    3.55822900   0.04941900  -1.95273300
H    1.84889700   0.46372100  -2.30679800
H    1.71536800  -3.79119400  -1.86420900
H    3.05603900   2.04915200   0.99502400