12

N    1.12860300   0.03382300   0.33259000
C    2.34785200  -0.00199200   0.02709800
C    3.21745700  -1.22831900  -0.10239400
C    4.54184000  -0.68839200  -0.47741900
C    4.45573100   0.70089200  -0.55695200
N    3.21179800   1.09618600  -0.27157400
H    0.70532300   0.96435200   0.37137300
H    2.81512200  -1.93013400  -0.85662800
H    3.24465600  -1.80489200   0.84108100
H    5.44606000  -1.26810400  -0.66367800
H    5.23994800   1.41678500  -0.80759000
H    2.91025400   2.07109600  -0.26657700