14

C    0.97750100  -0.10644800  -0.00668500
C    2.45457100   0.12593800  -0.08668200
O    3.06961900  -0.23199300  -1.36100600
C    3.13429100   1.11496200  -0.93717800
C    4.54338000   1.64496900  -0.60219700
C    5.31258100   1.90303000  -1.80767700
N    5.89918300   2.09099700  -2.78597600
H    0.62526600   0.38819200   0.91194500
H    0.75561400  -1.17920500   0.07875300
H    0.45437700   0.31719500  -0.87372400
H    3.06268800  -0.28898200   0.73517000
H    2.57829700   1.75737800  -1.64134300
H    5.06881600   0.93263100   0.05199300
H    4.38160900   2.58066100  -0.04139100