9

O    0.82861500  -0.10610200   0.16740300
S    2.23561900  -0.20848100   0.37165000
O    2.89483300  -0.82002600   1.47768600
C    3.04989700  -0.61634700  -1.13469000
C    3.63265600  -0.87065400  -2.19231500
C    3.03425800   1.29741600  -0.06716900
C    3.60645300   2.33811800  -0.40233000
H    4.14179800  -1.10346400  -3.12215000
H    4.10620100   3.25786800  -0.68925100