16

N    0.97525600  -0.65350600  -0.06441000
C    2.06169800  -0.12680600  -0.52912500
C    3.24064100  -0.10708300   0.39223800
O    2.87329900  -0.67470900   1.60019300
C    3.85558900  -0.83463600   2.53772500
C    2.20797000   0.43624200  -1.86184000
C    1.34427600   0.23947600  -2.86859900
H    1.00691700  -1.03151600   0.88721200
H    0.10501200  -0.69176800  -0.58837200
H    3.56964300   0.94732300   0.49664300
H    4.06774700  -0.65544200  -0.10237900
H    4.70901400  -0.15168800   2.50058100
H    3.49770000  -1.27581200   3.46602300
H    3.11789200   1.01915700  -2.02717300
H    0.44074900  -0.37160400  -2.77979500
H    1.53053300   0.67938200  -3.85109000