15

C    0.81223900  -0.16487400  -0.04777600
C    2.25811900  -0.39838500   0.20077000
N    2.73574800  -0.34530700   1.41566500
C    3.20077100  -0.63992000  -0.93195700
C    3.72909100   0.73376000  -1.14628800
O    4.66003800   1.12345300  -0.27815900
H    0.66778200   0.45387500  -0.94328100
H    0.30070300   0.29981000   0.80498900
H    0.34087300  -1.14148900  -0.25342800
H    3.71834900  -0.52944200   1.60598200
H    2.15701600  -0.06424300   2.20314600
H    2.66944900  -1.00911100  -1.81740000
H    4.00739600  -1.34306900  -0.66445200
H    3.31996000   1.43566800  -1.87680000
H    4.91287000   2.04670500  -0.40600000