17

O    1.09693400   0.04673400   0.24009200
C    2.27051500   0.01829800   0.08777400
C    3.05745700  -1.31831900   0.00339700
C    3.99828000  -1.29335500  -1.19419500
C    4.89564400  -0.05891500  -1.22086500
C    4.05449300   1.21474500  -1.22942200
C    3.11647600   1.31543300  -0.03360300
H    2.32415000  -2.13395000  -0.01361300
H    3.60420200  -1.33300100   0.96363100
H    4.60516400  -2.21199200  -1.12159300
H    3.41680300  -1.38160600  -2.12557600
H    5.56978500  -0.06176900  -0.34828800
H    5.53510200  -0.08577800  -2.11318000
H    4.70196300   2.10694900  -1.18224600
H    3.47697200   1.30277700  -2.16328300
H    3.66392300   1.33257300   0.92619000
H    2.42042100   2.16228600  -0.07397700