15

C    1.14124600   0.03531900   0.25308300
N    2.57016700   0.03645100   0.00763700
C    3.34144000  -1.17808900  -0.15755200
C    4.71735900  -0.69352300  -0.44655700
C    4.72317600   0.65134600  -0.46651800
C    3.36853300   1.10866000  -0.18733500
N    2.99617600   2.38536100  -0.18419600
H    0.85315700   0.91612000   0.84176300
H    0.87767300  -0.86706300   0.81770200
H    0.59052800   0.03686300  -0.70046300
H    2.91809800  -1.79357100  -0.97370600
H    3.27684300  -1.78679200   0.76426100
H    5.56096300  -1.36204800  -0.61745900
H    5.55130700   1.33245900  -0.65137700
H    2.04221600   2.53729900   0.16422600