16

C    0.92184100  -0.53269400  -0.84506700
N    2.06360900  -0.59307800   0.02800300
C    2.53781000  -1.86921000   0.47906200
C    2.73548500   0.62755400   0.53868500
O    3.52805100   0.44951900   1.41865100
C    2.35687300   1.90331400  -0.07521000
C    2.88447700   3.03592600   0.41174400
H    0.19392700   0.19975300  -0.46174900
H    0.46049600  -1.52229300  -0.93469000
H    1.25022500  -0.18979200  -1.84380900
H    1.75135600  -2.33557900   1.10275800
H    3.45684200  -1.75097800   1.06074700
H    2.68259700  -2.52210000  -0.39880600
H    1.67289400   1.92990300  -0.92368700
H    3.57495500   3.01943400   1.25976500
H    2.63529800   4.00332800  -0.02905700