13

C    0.93258900  -0.12141100   0.03980800
C    2.44789400   0.05402300  -0.02980400
C    2.95497800   1.38692300  -0.03446700
C    3.41040100   2.55214200  -0.04369400
C    3.93579800   3.87930400  -0.02925600
H    0.69598900  -1.19260300   0.03190800
H    0.44043200   0.34849200  -0.82212800
H    0.52644900   0.31617400   0.96152700
H    2.90001800  -0.43898700  -0.92198100
H    2.98406200  -0.46964300   0.79527100
H    3.21177300   4.60901000  -0.42321900
H    4.90662300   3.93607500  -0.54626700
H    4.12118000   4.14147300   1.03536200