18

C    1.27600400  -0.56836600  -0.53167600
C    2.34086900  -0.06063900   0.42555500
N    3.16492000   0.98919900  -0.18196900
C    4.47156600   0.96805000  -0.28821700
C    5.28078600   2.13057800  -0.72401300
C    5.68863500   2.44275100   0.67004300
O    6.84490500   2.10639200   1.19240000
H    0.67471300  -1.33907900  -0.03110000
H    1.72478300  -1.01268100  -1.43108100
H    0.59131300   0.23645200  -0.83837900
H    3.01888100  -0.86731200   0.73760500
H    1.88656000   0.35656700   1.33808000
H    2.66292900   1.79733900  -0.54867900
H    4.98308300   0.05143200   0.02190600
H    4.69073100   2.92957200  -1.19599200
H    6.12045300   1.85281300  -1.37754900
H    5.00332200   2.92687600   1.36938000
H    7.49871200   1.83197100   0.53400900