19

C    3.69184500   5.04422300  -2.78010100
C    4.22938000   4.60720400  -1.43148900
N    4.02459600   3.17024600  -1.23336000
N    4.50233200   2.50866500  -0.22115300
C    5.72157500   2.35132000   0.13240700
C    6.10153600   1.79362000   1.45022100
C    6.96380800   0.53130000   1.30864100
H    3.86019500   6.12259400  -2.89753300
H    2.60845600   4.87070200  -2.85761700
H    4.20146700   4.52886000  -3.60590000
H    3.72746400   5.13680200  -0.60299800
H    5.31148100   4.79373100  -1.33546700
H    3.24180400   2.71162700  -1.70812100
H    6.51652500   2.59705000  -0.59437400
H    5.19681400   1.60845300   2.04520600
H    6.68605300   2.57981500   1.96168400
H    6.40582600  -0.27869200   0.81901200
H    7.26122600   0.18384800   2.30623700
H    7.88016000   0.72601000   0.73258900