15

C    2.23378100  -0.64855400   0.72324600
C    2.87661000  -0.35488100  -0.62178900
N    3.52903100   0.89398400  -0.71704000
C    4.48883500   1.65650200  -0.37871500
N    4.46676200   2.99082100  -0.39737300
C    5.60572700   3.79797400  -0.08385200
O    5.54435400   4.97801600  -0.11199800
H    1.77949600  -1.64755800   0.68593300
H    1.44052200   0.07668700   0.94958800
H    2.97624700  -0.63669700   1.53330300
H    2.16233600  -0.41302300  -1.46394400
H    3.65747800  -1.10273700  -0.89533300
H    5.44162000   1.17570200  -0.08363000
H    3.61499000   3.49472900  -0.65163100
H    6.50271100   3.19286600   0.17456600