16

C    1.17102500  -0.28449200  -0.00480000
C    2.59953800   0.24239400   0.02936700
C    2.87641000   1.52715000   0.75849900
C    3.89270700   1.38271800   1.64478000
C    4.37965600   0.01453500   1.57337800
C    3.38408500  -1.19983300   1.88925300
N    3.58295200  -0.67645600   0.60526700
H    1.13645800  -1.25143600  -0.52437600
H    0.53798100   0.42153900  -0.55805900
H    0.74747500  -0.39541700   1.00270100
H    2.93777600   0.40746200  -1.01841900
H    2.36513900   2.45947700   0.51137700
H    4.34984700   2.16487600   2.25015500
H    5.42320800  -0.26788100   1.74858300
H    3.96082500  -2.08603700   2.17412500
H    2.41809900  -1.04446900   2.38240200