14

C    0.96890400   0.02400600   0.01020500
N    2.42444200  -0.05465300  -0.00537700
C    3.26701200   1.06079700  -0.17730400
C    4.57232600   0.67120300  -0.14652600
C    4.54991600  -0.73629400   0.05142800
O    5.60421800  -1.48935800   0.13788400
C    3.16223500  -1.14438500   0.13409400
H    0.64617100   0.67900100   0.83051700
H    0.55367000  -0.97869800   0.15884600
H    0.61362100   0.42904500  -0.94677300
H    2.83221400   2.05075100  -0.30825000
H    5.45658200   1.29452800  -0.25021800
H    5.41176800  -2.42885500   0.27335000
H    2.73754400  -2.13752800   0.28108500