20

C    1.06856800   0.12234100  -0.36795500
C    2.51278900  -0.25912500  -0.67375000
C    3.47192800   0.30677400   0.39143300
C    4.88308700  -0.18102300   0.15551100
C    5.54604900   0.11896200  -1.14999500
C    5.74533100  -0.20639700   1.60384500
N    5.33499700  -1.30921900   0.86795800
H    0.39978600  -0.27548800  -1.14346700
H    0.93939300   1.21444200  -0.34126600
H    0.73992500  -0.28538800   0.59944500
H    2.79467600   0.12143500  -1.66775500
H    2.61550300  -1.35637500  -0.70646200
H    3.12864800  -0.00034400   1.39034300
H    3.46928500   1.40704200   0.35568100
H    6.63091100  -0.04977900  -1.11401400
H    5.35023800   1.16110000  -1.43906600
H    5.12073800  -0.52497800  -1.93779400
H    5.07260000   0.20303400   2.36327800
H    6.81782800  -0.01244300   1.71011400
H    6.05267900  -1.90840100   0.44966900