14

C    0.94974000  -0.00509200   0.22702000
C    2.43878100   0.02974200  -0.04774800
N    3.19945500   0.99542800   0.76320200
C    4.12741800   0.27391800   1.33950400
O    5.06428800   0.22766200   2.03440100
C    3.23285800  -1.17003100   0.47691300
O    3.96330300  -1.81998400  -0.39033000
H    0.48074200  -0.80514200  -0.36244400
H    0.48993100   0.94536900  -0.07949900
H    0.73731200  -0.16978700   1.29318800
H    2.66100100   0.17003100  -1.11656800
H    3.08471500   2.00660100   0.85284100
H    2.84394300  -1.72236500   1.34902100
H    4.33314000  -2.64771000  -0.04243200