15

N    1.28171500   0.07223100   0.71953700
C    2.40146400   0.06596300   0.09675100
N    3.03631700   1.26695800  -0.08890400
C    4.30761200   1.41819600  -0.77395800
C    4.56387900   2.88994800  -0.71171100
C    3.57217300   3.51438300  -0.07412000
C    2.52536000   2.54611800   0.37268800
H    0.88214200  -0.86665400   0.81096200
H    2.92911300  -0.80611300  -0.31751900
H    4.22201500   1.01550900  -1.80295900
H    5.07579800   0.80182800  -0.26571700
H    5.45440200   3.34569400  -1.14295800
H    3.49463400   4.58413100   0.11764300
H    2.36459600   2.50432500   1.46745700
H    1.51857400   2.71606300  -0.05581200