10

O    1.28954400  -0.55365000  -0.30981400
C    2.41955400  -0.20178200  -0.02984200
C    2.94095900   1.13713100  -0.19706500
C    4.22111700   1.38315300   0.15841600
C    4.85060800   2.74989000   0.01919500
O    5.98763900   2.90097400   0.35079700
H    3.06437200  -1.01915600   0.38622800
H    2.26385100   1.89203100  -0.60806800
H    4.88573000   0.61311100   0.56910200
H    4.21162300   3.56178400  -0.39309900