12

O    1.54989100  -0.21476000  -0.90938000
C    2.65232100  -0.06359600  -0.10665100
C    2.93130500   1.36813300   0.05467500
C    2.24599800   2.51235600  -0.48245000
C    2.98189300   3.58487400   0.02376500
N    3.99046100   3.16466600   0.77571700
O    3.93424800   1.76895400   0.77720900
H    1.33607500  -1.14629000  -1.03352400
H    3.59036100  -0.52409000  -0.49923800
H    2.54963000  -0.48224300   0.92294200
H    1.36673600   2.49244000  -1.12567600
H    2.83889700   4.65743000  -0.11393800