16

C    0.37293000   1.44578200   0.70036600
N    1.17193000   0.39707700   0.08831600
C    0.39731300  -0.31853100  -0.91433200
C   -0.57712200   0.77830900  -1.36451300
C   -1.00592600   1.11940600   0.08322600
C   -1.35232300  -0.27434000   0.59116600
C   -0.48326700  -1.14270000   0.04088900
H    0.77720200   2.42665100   0.38981500
H    0.41872200   1.39087500   1.79743700
H    2.09116400   0.10224600   0.42444700
H    1.01860500  -0.85550800  -1.63760700
H   -0.09523800   1.61203900  -1.89640500
H   -1.38845900   0.36484200  -1.97633600
H   -1.75826200   1.90231700   0.22097200
H   -2.14278800  -0.50366000   1.30750700
H   -0.31921000  -2.19647900   0.26698500