17

C    1.13480300   3.01242800   0.41014500
C    2.61534900   3.28182400   0.42152200
O    3.30243900   2.04462500   0.04869100
C    4.56778600   1.93817500  -0.03234200
C    5.51906900   2.94725900   0.20957200
C    6.88583200   2.66553000   0.07589100
C    7.86554100   3.61229000   0.29915800
H    0.60713900   3.93508800   0.68849300
H    0.86922400   2.23140000   1.13479400
H    0.79556500   2.70944500  -0.58924500
H    2.98300600   3.56650800   1.41904300
H    2.90887100   4.04700100  -0.31307600
H    4.89327900   0.93153800  -0.32572800
H    5.19838000   3.95092400   0.50130400
H    7.18884500   1.65440000  -0.21727000
H    7.61136300   4.63459300   0.59344800
H    8.92326200   3.36404300   0.18728600