15

C    0.89979900  -0.02680200  -0.19511200
C    2.43419700  -0.02116800   0.05291400
C    2.90511600   1.24622200   0.65728100
C    3.59868100   1.23450800   1.84746200
N    3.86237600   0.04814900   2.42493300
C    3.46744200  -1.15785600   1.83891700
N    2.81814000  -1.21698300   0.74895400
H    0.63198800  -0.97070600  -0.68515400
H    0.61913200   0.81397600  -0.84277900
H    0.36089100   0.05034900   0.75857300
H    2.87774900  -0.09393300  -0.96666800
H    2.69436100   2.19802100   0.16440500
H    3.95057600   2.13530400   2.35402300
H    4.37094400   0.01900400   3.30867300
H    3.75816200  -2.06151500   2.38533400