12

O    0.95016600  -0.05565600   0.00694500
N    2.24915000  -0.11944600  -0.00186200
C    2.83773200   1.03981500  -0.00301800
C    2.29521200   2.39481800   0.00384800
C    3.39025400   3.28046400  -0.00133400
C    4.58479400   2.54459400  -0.01108700
C    4.27621600   1.16523300  -0.01235300
H    0.62676100  -0.97249900   0.00599100
H    1.23763200   2.66033000   0.01155700
H    3.31650100   4.36836000   0.00177900
H    5.59101700   2.96424400  -0.01679800
H    4.97859000   0.33010700  -0.01905700