16

C    0.97411800   0.56355600  -1.12874700
N    2.29369400   0.62521200  -0.51849000
C    3.00982300   1.71606700  -0.32625700
C    2.45354200   3.02853300  -0.76479500
C    4.28370900   1.55078200   0.29428600
C    5.25135300   2.61069800   0.60848800
O    6.29760100   2.31716900   1.13677900
H    0.65845200  -0.48308600  -1.18316600
H    1.00385300   0.98685800  -2.14309100
H    0.24944600   1.12944900  -0.52466300
H    2.69816400  -0.25877100  -0.20853400
H    1.48211400   3.21098200  -0.27941600
H    2.28115600   3.01985000  -1.85293700
H    3.11958300   3.86282400  -0.52909200
H    4.61125400   0.54449300   0.58077300
H    5.00091100   3.66230300   0.35294400