17

C    3.80725000   3.62029500  -3.08273800
C    4.33525000   3.52664800  -1.67513900
O    5.18834500   2.40647000  -1.53643900
C    5.60338800   2.02689500  -0.31609100
C    6.28203900   0.67703500  -0.33035800
C    6.65157400   3.16908000   0.24973800
O    6.58914900   4.30181700  -0.04870600
H    3.20730200   4.53506800  -3.17710900
H    3.16534200   2.75926600  -3.31428900
H    4.62808200   3.66471300  -3.81059900
H    3.54761800   3.48605900  -0.90201100
H    4.98189900   4.40792900  -1.42239100
H    4.81703200   2.13139000   0.46387100
H    7.10680100   0.65479200  -1.05592700
H    5.54257500  -0.08221500  -0.61901500
H    6.66070200   0.42484700   0.66948600
H    7.38542800   2.73121400   0.96735400