14

C    0.97972100   0.15009400  -0.08869700
C    2.44849300   0.00180700  -0.12470800
C    3.34293100   0.98488900   0.21000600
C    4.83145800   0.77376000   0.18849800
N    4.98558700   1.17498800  -1.18137000
H    0.54798700  -0.58967200   0.60655500
H    0.56123200  -0.10102200  -1.07909000
H    0.65520200   1.15679700   0.20234500
H    2.84159800  -0.98463900  -0.40623300
H    2.98907800   1.99842800   0.42800900
H    5.14179300  -0.26763600   0.33405000
H    5.38306100   1.43214300   0.86907700
H    4.86624500   0.50674100  -1.94068400
H    5.01169700   2.16009000  -1.44057800