13

N    1.50277800  -0.06373900   0.38901500
N    2.68670200   0.34455300   0.02072700
C    3.84357500  -0.57909200   0.05914600
C    3.46642500  -1.89961600   0.53312300
C    3.17822500  -3.00535800   0.92439200
C    2.89025200   1.69531400  -0.42702900
O    3.97234000   2.04648700  -0.75684600
H    0.71129400   0.57743200   0.35846600
H    1.41716900  -1.03822300   0.69818600
H    4.60561200  -0.11382500   0.70589500
H    4.26182600  -0.61349100  -0.96029100
H    2.93814700  -3.99771600   1.27175000
H    1.96314100   2.30577600  -0.41795700