15

C    0.96337700   0.05395300   0.50607200
C    2.18963500  -0.02506700  -0.00883900
C    2.97384700   1.19218600  -0.38699600
O    4.33900200   1.13723400   0.15723800
C    4.94673600   0.02569300   0.31154600
C    4.34571000  -1.22394600   0.05875300
C    2.91260500  -1.32253500  -0.27330600
H    0.48355600   1.01732800   0.69581800
H    0.38508500  -0.84355200   0.73980300
H    2.56022000   2.12626200   0.00681800
H    3.12073200   1.29324100  -1.47523500
H    5.97935600   0.12415700   0.66498100
H    4.97490200  -2.11626400   0.12247000
H    2.85134200  -1.60958800  -1.34892600
H    2.46371700  -2.17851100   0.25813200