18

C    1.09509600   1.09760400  -0.51247300
C    2.54833600   0.83955200  -0.42746400
N    3.32640800   1.54553900   0.28794200
O    4.53240800   1.37599700   0.63639700
C    5.49922900   2.48827900   0.25574200
C    5.29460000   3.62246100   1.23333300
C    6.85449100   1.83059600   0.28407300
H    0.82598800   1.29300600  -1.56216000
H    0.78547600   1.93682200   0.12068900
H    0.55989700   0.18256800  -0.21282500
H    3.01323200   0.02878700  -1.01280800
H    5.19002000   2.76631000  -0.76434500
H    5.52423600   3.30622900   2.26030500
H    4.27022600   4.01725600   1.18823200
H    5.98375600   4.43421000   0.95984700
H    7.10677300   1.48698200   1.29694900
H    7.60117200   2.57737500  -0.02107500
H    6.91369000   0.98643300  -0.41534900