13

N    0.98190400   0.12162200   0.23128000
N    2.24954800   0.05994300   0.13092400
C    2.95634400   1.18065400   0.13153400
C    4.37398300   1.11173500   0.01862200
C    5.03044500  -0.11134600  -0.09197200
C    5.11008600   2.33134300   0.02203400
C    5.73790300   3.36642700   0.02462100
H    0.46601800  -0.75765500   0.22766500
H    0.46269600   1.00345800   0.31439000
H    2.47175700   2.16455700   0.21655600
H    4.46477300  -1.04512900  -0.09396900
H    6.11844700  -0.14589400  -0.17758900
H    6.30133000   4.28548900   0.02667300