20

C    0.94744100   0.06113700  -0.08232600
C    2.46145200  -0.03814000   0.00205200
N    3.05861800   0.09509000  -1.25075200
C    3.10334500   1.19485100   0.89952100
C    4.45796900   0.68926100   1.39179600
C    4.48766700  -0.83562400   1.14829500
C    3.05411000  -1.22898100   0.79101600
H    0.51522400   0.03879500   0.92589800
H    0.54304100  -0.79200200  -0.64623700
H    0.62557200   0.99442100  -0.56865400
H    4.02739100  -0.18777800  -1.41068800
H    2.58767700   0.58012900  -2.01680400
H    2.34765400   1.27557500   1.69558100
H    3.11837000   2.13762700   0.33748800
H    5.28881400   1.19809900   0.88478800
H    4.55509900   0.93020300   2.46068700
H    5.18171700  -1.08440400   0.32801500
H    4.85176200  -1.40228800   2.01520100
H    2.96730600  -2.16743300   0.22432400
H    2.43643600  -1.33218800   1.69547600