18

N    1.22480600  -0.01468500   0.08950600
C    2.49809800   0.16874600   0.22121100
C    3.44064700  -0.98550800   0.17073600
C    4.67628600  -0.66007100  -0.61944700
C    5.25588200   0.71082400  -0.55296300
C    4.17814800   1.79650100  -0.60827400
C    3.05943700   1.52895300   0.42005100
H    0.56788200   0.76329100   0.13712400
H    0.83103600  -0.94282200  -0.06033900
H    2.94044300  -1.89662900  -0.19119700
H    3.70411700  -1.18245500   1.23653300
H    5.25321500  -1.49908500  -1.01201800
H    5.83811400   0.82644900   0.38582900
H    5.97932700   0.85577700  -1.36782700
H    4.60480700   2.78690200  -0.40088500
H    3.73755200   1.84252100  -1.61644400
H    3.49387000   1.54059200   1.43653400
H    2.27323900   2.29667500   0.38458900