13

C    1.31262000  -0.22327100   0.43686700
C    2.78019600  -0.29911200   0.34035900
O    3.31319500  -1.33006000  -0.18573500
O    3.45980900   0.68395500   0.81768800
C    4.83131000   0.84172900   0.87934700
C    5.72758600  -0.09629700   0.41874200
C    6.59745600  -0.87431500   0.03506900
H    0.98878800   0.80724100   0.61726300
H    0.99511600  -0.85635600   1.28340800
H    0.86026100  -0.63826400  -0.47370300
H    5.09875300   1.79409300   1.33544200
H    4.29921800  -1.32861200  -0.19371800
H    7.36004400  -1.56056200  -0.30256200