15

C    0.95804700  -0.00968300  -0.00308200
C    2.40601800   0.04656000  -0.06391500
C    3.61958300   0.09384500  -0.11670400
C    5.05971600   0.07408300  -0.16615200
C    5.66696500  -0.85758900  -1.26766400
N    5.66796600   1.34155000  -0.15856600
H    0.52793500   1.00115800  -0.03808500
H    0.63950100  -0.49565600   0.93158700
H    0.56389400  -0.59466300  -0.84712900
H    5.41053000  -0.41613500   0.78990000
H    5.37848400  -0.47468600  -2.25473900
H    5.25710200  -1.86410400  -1.12445900
H    6.76107500  -0.89621300  -1.17990500
H    5.12339900   2.20099200  -0.06945300
H    6.68494100   1.42432000  -0.19160200