14

C    2.69015100  -1.17287500   0.29585900
C    2.20312900   0.05264700   0.14765300
N    2.99699600   1.24032700   0.08470100
C    2.50137100   2.48846700  -0.06621700
C    3.58557000   3.43170800  -0.08729500
C    4.74187900   2.71012900   0.05539000
C    4.36413700   1.33967400   0.16233800
H    1.99455300  -2.01215300   0.33176500
H    3.75270600  -1.40725600   0.38598900
H    1.13515400   0.25846500   0.05990800
H    1.42866500   2.66728100  -0.15168100
H    3.47267700   4.50877200  -0.19746400
H    5.76505400   3.07964800   0.08527300
H    4.99559200   0.46076900   0.28661200