16

C    0.98412700  -0.07256400   0.01110300
C    2.49018400   0.09915100   0.00540100
C    3.20629200   1.11331400   0.93278800
C    4.17910000  -0.04114800   1.27008500
N    3.27912500  -0.93284900   0.65407500
C    5.51889800   0.05951900   0.36996800
O    5.47179400   0.50330600  -0.72231800
H    0.68294400  -0.93923900  -0.59367500
H    0.53088200   0.82331800  -0.43476900
H    0.60156200  -0.18867800   1.03438000
H    2.86736900   0.20156300  -1.03760200
H    2.59292000   1.38153100   1.80289400
H    3.63382000   2.00674800   0.46446100
H    4.48446900  -0.28435700   2.29950200
H    3.20076600  -1.95285200   0.67913500
H    6.43970700  -0.31898300   0.86525100