18

C    0.47666100   0.87543300   0.00753300
O    1.76095900   0.33726100   0.28096000
C    2.83803500   1.14698700   0.46831000
C    3.90038900   0.36317000   1.20631300
N    3.75340600  -1.01809000   1.06374300
C    3.31327600   2.12039400  -0.64128200
C    2.74822900   2.64491500   0.63221100
H    0.10262100   1.44349900   0.87262300
H   -0.18037800   0.02027400  -0.18103100
H    0.49597400   1.51852800  -0.88615400
H    3.74542500   0.63410000   2.28702300
H    4.93030600   0.68499900   0.98358700
H    2.82349600  -1.39242300   0.87847300
H    4.51100700  -1.65844800   1.28421600
H    2.68347100   2.11789900  -1.53556100
H    4.38550400   2.19288000  -0.83465100
H    3.43455500   3.09920400   1.35262800
H    1.75483700   3.09809100   0.61320500