15

C    0.93551800  -0.00285700   0.02014600
C    2.42390700  -0.03532100  -0.00726100
C    3.16559100   1.14079100  -0.19023300
O    4.45499800   1.19379000  -0.22556800
C    5.27704400   0.03170600  -0.07826000
C    4.52136900  -1.22397000   0.11626300
C    3.15915600  -1.24728300   0.14895400
H    0.52894800  -0.65120000  -0.77264800
H    0.53538600   1.00957800  -0.11555900
H    0.56646900  -0.40180100   0.97866700
H    2.69440500   2.12083000  -0.31910800
H    5.95388600   0.23514600   0.77091200
H    5.91624100  -0.01318600  -0.97825900
H    5.10891200  -2.13859600   0.23348700
H    2.62412300  -2.18838600   0.29412900