12

C    0.96986000  -0.05451800  -0.00120100
C    2.40846700  -0.01898000  -0.05205600
C    3.63847500   0.02917400  -0.08847200
C    5.01450000   0.04560000  -0.14408000
N    5.66972500   1.13811500   0.26050400
N    6.93961900   1.13239700   0.20085700
H    0.56153900   0.76804600  -0.61164800
H    0.63593900   0.11280300   1.03633000
H    0.57801400  -1.01419500  -0.36508900
H    5.55547100  -0.83860400  -0.51990700
H    7.42588300   1.97399900   0.51335000
H    7.49341100   0.33614200  -0.14060700