15

O    1.10626600  -0.11181900  -0.25141900
C    2.39408400   0.04539300   0.29377200
C    3.09987100   1.27433000  -0.25899300
O    3.03675700   1.20776400  -1.66681100
C    3.76375300   0.16366100  -2.22239700
C    3.62169000  -1.12914000  -1.51819400
C    2.93072400  -1.22223700  -0.32884600
H    1.08290200   0.33176700  -1.12170900
H    2.33970700   0.01131300   1.38839400
H    2.58682900   2.19536700   0.04480200
H    4.14132700   1.30676800   0.10987800
H    4.85992400   0.38421000  -2.23826100
H    3.48570300   0.06638600  -3.28707400
H    4.14255600  -2.00235100  -1.92680200
H    2.65859000  -2.18177200   0.11901500