16

C    0.86592700  -1.16458500   0.66378400
C    1.52615700  -0.08620700  -0.11621100
N    1.06089100   1.11304500  -0.14752100
C   -0.17094700   1.53609300   0.54985800
C   -1.37521100   0.83073600  -0.00618500
C   -1.43576400  -0.53057300  -0.27563000
C   -0.44947700  -1.47552900  -0.01969000
H    1.51320800  -2.04796600   0.69195000
H    0.70598600  -0.83769600   1.70861500
H    2.40091700  -0.29565500  -0.74286400
H    1.51256200   1.79391500  -0.75955400
H   -0.03104600   1.34510700   1.62877500
H   -0.25501900   2.62197700   0.42871500
H   -2.24613100   1.45194000  -0.22413200
H   -2.35295900  -0.89672100  -0.74449000
H   -0.61673300  -2.51293100  -0.31550100