16

N    1.00070100  -0.04868900   0.02818700
C    2.43540000   0.01580000  -0.05105900
C    3.01900700   1.13847300   0.82272700
C    4.42806700   0.65669200   1.15843100
N    4.31357400  -0.77441500   1.11131400
C    3.07539200  -1.23869700   0.57760700
H    0.61078100  -0.69712500  -0.65287500
H    0.57982100   0.85859300  -0.16008700
H    2.83997300   0.11857700  -1.07982900
H    2.41689300   1.22130900   1.74113000
H    3.02467000   2.11514500   0.32327700
H    5.18318200   0.94829200   0.39615800
H    4.84372900   0.97374400   2.13001500
H    5.05751500  -1.40253100   1.42982900
H    3.23161700  -2.11882600  -0.06777800
H    2.43486000  -1.57319300   1.42774900