16

C    1.15637000   0.20328500  -0.04949300
C    2.60758100  -0.10372400  -0.01915200
C    3.32873900  -1.14660100  -0.46129000
C    4.76386100  -0.77963900  -0.12305000
C    4.77667200   0.74601100  -0.58276500
C    3.67884400   0.82847800   0.56628700
N    4.60931000  -0.12239200   1.18841100
H    0.60035200  -0.60444100  -0.54153900
H    0.96574900   1.13972700  -0.59703800
H    0.76172600   0.33357000   0.96993800
H    3.01413500  -2.05788600  -0.96579300
H    5.59867500  -1.47175200  -0.26099700
H    4.37925000   0.90631900  -1.59487600
H    5.70571500   1.29766400  -0.38903300
H    3.42232400   1.74082700   1.11207300
H    5.40750700   0.17452300   1.76572500