17

C    0.71985900   0.02581500   0.06705900
N    2.14922000   0.00935000  -0.02073900
C    3.08476500  -0.83411500  -0.63582800
C    2.66166300  -1.44210300  -2.02258400
N    2.94015200  -0.35341400  -2.90933700
C    2.67115000   0.92163300  -2.31685700
C    3.09073800   0.66890500  -0.82296800
H    0.39301000   0.98458600   0.48911700
H    0.38585800  -0.80040500   0.70734500
H    0.25911400  -0.09458100  -0.93414700
H    3.80447900  -1.38660000  -0.02139500
H    3.23773200  -2.33736300  -2.28241600
H    1.59038800  -1.70187600  -2.00932900
H    3.80888900  -0.42253500  -3.43652300
H    3.25407800   1.72125600  -2.78765800
H    1.60198800   1.18526200  -2.36883600
H    3.81532300   1.34952600  -0.36200700