16

C    0.98755200  -0.08372300   0.06994500
C    2.51692000   0.01000200  -0.08875800
C    3.05099800  -0.77071400  -1.28964900
C    2.88652400   1.48346700  -0.15501600
N    2.87784200   2.13907700  -1.28526700
N    3.29218900   2.06706400   0.96606700
H    0.62184800   0.46867200   0.94734800
H    0.71605600  -1.13968100   0.20548200
H    0.46830000   0.29154700  -0.82394600
H    2.98959400  -0.38154400   0.82601100
H    2.54104400  -0.49522300  -2.22660700
H    2.85305900  -1.83906400  -1.12890000
H    4.13566500  -0.64713900  -1.41649900
H    2.65365200   1.66219700  -2.15433200
H    3.10270800   3.13089000  -1.32820500
H    2.70463500   2.01356000   1.80599000