13

O    1.02425600  -0.05472600   0.11748500
C    2.39002900  -0.04172000  -0.04755000
C    2.88095600   1.30909600   0.43652200
C    3.66377100   1.24105900   1.57153800
C    3.80594500  -0.16655900   1.98451700
O    4.47937900  -0.76169400   0.86097300
C    3.10758000  -0.96712500   0.95404400
H    0.55488700  -0.19909200  -0.71387600
H    2.73915200  -0.27037300  -1.06875600
H    2.49219600   2.23647800   0.00530500
H    4.13786300   2.09059700   2.06850500
H    4.08390000  -0.51278500   2.98139300
H    2.74855300  -1.98490600   1.14532600