19

C    0.98098100   0.06700400  -0.02771600
C    2.49882800   0.15276500  -0.06725200
N    2.96080700   0.28144800  -1.36616300
C    3.13521600   1.16013700   0.92251800
C    4.50977400   0.59967200   1.30576300
N    4.41000800  -0.82334300   1.04184300
C    3.14974100  -1.24135000   0.66720100
H    0.61693400  -0.10753500   0.99316500
H    0.61039400  -0.74708700  -0.66838600
H    0.55442200   1.01337600  -0.38977800
H    3.91615800   0.54798700  -1.57272300
H    2.41890500  -0.07954000  -2.14318300
H    2.48372700   1.22332900   1.80544800
H    3.19543900   2.16680800   0.48745800
H    5.33135600   1.01547300   0.69880300
H    4.76775200   0.80307700   2.35862700
H    5.23599800  -1.34226300   0.75731600
H    3.13702300  -2.15852800   0.06584600
H    2.43678500  -1.31542300   1.51031900