14

C    0.72697200  -1.69221600  -0.01572300
C    1.54285100  -0.43004600  -0.03933000
O    1.18039700   0.44082700   0.99431000
C    1.89924100   1.56904400   1.17652100
C    1.74434500   2.54676600  -0.07395400
O    1.49801600   2.16167900  -1.16320000
H    0.97443400  -2.29567900  -0.89874400
H   -0.34819300  -1.46978600  -0.02914900
H    0.96136300  -2.28057400   0.88313400
H    1.33642800   0.17754100  -0.97786900
H    2.63873000  -0.58433200  -0.04316100
H    2.99782900   1.41527200   1.21241000
H    1.54009200   2.10147400   2.06770600
H    1.92977700   3.61748800   0.17485800