12

C    0.94256700  -0.00105000   0.04809400
C    2.42150400  -0.00850500  -0.21024800
O    2.82182200  -1.12943700  -1.01575800
C    3.38017900  -0.69118100  -2.10754700
C    3.38985200   0.70191700  -2.09238900
O    2.83746600   1.12402300  -0.99124000
H    0.68999300   0.88747900   0.64147900
H    0.67760400  -0.89864500   0.62211400
H    0.38327200   0.01307600  -0.89710900
H    3.03544400  -0.02273000   0.70545700
H    3.74464700  -1.40442900  -2.84813400
H    3.76429900   1.42598100  -2.81733600