17

C    1.44625100  -0.21390500  -0.75244700
N    2.69355400   0.08904900  -0.14146100
C    3.05631900   1.29801400   0.51187900
C    4.58424200   1.50020700   0.27267000
N    5.21928300   0.20692500   0.50429200
C    4.80400600   1.95163700  -1.10444400
C    4.97429100   2.31278300  -2.24390200
H    1.25290900  -1.29429600  -0.70024800
H    1.51886200   0.05922100  -1.82603900
H    0.63285800   0.36768800  -0.29958900
H    3.52499000  -0.54710700  -0.17410500
H    2.87738000   1.15650400   1.59936200
H    2.43237900   2.13913000   0.17647400
H    4.92282400   2.29048600   0.96447200
H    6.05906600   0.09470100  -0.05978600
H    5.48039400   0.07949100   1.48098200
H    5.14343000   2.64753700  -3.25338100