12

C    1.76143900  -0.38887800   0.04386800
O    0.84464300  -1.46524700   0.25846600
C   -0.08514000  -0.94337800  -0.70361900
C   -1.12307500  -0.42174200   0.23935900
N   -0.97788500   0.85646300   0.48754500
O    0.02931800   1.33999900  -0.20406800
C    0.75631300   0.32338300  -0.89241200
H    2.63634700  -0.74512900  -0.52544100
H    2.07003900   0.11589900   0.97043800
H   -0.37211700  -1.63210900  -1.50785300
H   -1.85434500  -1.01514500   0.79504600
H    1.08669100   0.72610400  -1.85532900