20

C    1.15484400   0.02095700   0.27405300
C    2.64169900   0.03966900  -0.07269800
C    2.95758700  -0.73293900  -1.34901500
C    3.08960800   1.52707400  -0.18806600
C    3.18405100   2.39210000   1.09124900
C    4.69124400   2.53018600   0.79422700
N    4.49754500   1.72678300  -0.38201600
H    0.93159100   0.58434600   1.19147300
H    0.83209400  -1.01672300   0.43808000
H    0.54913900   0.43604500  -0.54602300
H    3.21261200  -0.39039200   0.76798700
H    2.43562300  -0.30436900  -2.21879700
H    2.62096700  -1.77380100  -1.24379600
H    4.03544600  -0.77086900  -1.56990900
H    2.52451300   1.97193500  -1.03386000
H    2.95068100   1.85164600   2.01691700
H    2.62034800   3.33168600   1.06121200
H    5.08188000   3.53519100   0.54780700
H    5.40402300   2.06823300   1.50311900
H    5.14464200   1.40048400  -1.10745500