16

C    1.34358700  -0.43535400  -0.00633500
C    2.79158600  -0.09317900   0.33486900
C    3.23183200   1.16361000  -0.43093200
S    4.90522900   1.57216900  -0.01169900
N    5.35132300   2.83899200  -1.02613500
O    5.09208000   1.92303800   1.35995700
O    5.86827700   0.63623700  -0.68428400
H    1.03917400  -1.33202500   0.54901900
H    1.21844800  -0.64617800  -1.07835600
H    0.66030400   0.37992800   0.27254500
H    3.45330900  -0.93255000   0.07062300
H    2.89820900   0.08829700   1.41486400
H    2.64569600   2.05365100  -0.14952800
H    3.21439000   1.01807600  -1.52231100
H    5.04840100   2.86528800  -2.00631700
H    6.26423300   3.26392400  -0.81418900