13

O    0.97432700  -0.10844200   0.58566000
C    2.09726400  -0.00819500   0.22149300
C    2.82500200   1.23368600  -0.23239400
C    4.31427500   1.21229100   0.12950900
N    4.87286000  -0.09587700   0.05869600
C    4.20005800  -1.18783600  -0.18768200
N    2.89492400  -1.21784200   0.06356600
H    2.33023600   2.10944100   0.20800500
H    2.67805700   1.29608700  -1.32446800
H    4.53049600   1.58825000   1.14577000
H    4.90604500   1.87039000  -0.53676000
H    4.72665600  -2.09363400  -0.51393700
H    2.39622200  -2.10712000   0.14946400