20

C    0.92488000  -0.33637400   0.57762400
C    2.38862700  -0.31450700   0.96890000
N    3.09128300   0.93468700   0.74374400
C    2.38564100   2.17472300   0.56945100
C    4.53528600   0.91010300   0.68957800
C    5.02264800   0.83791500  -0.76701200
O    4.48506000   1.93031500  -1.44071800
H    0.52905800  -1.33822700   0.78995200
H    0.78864400  -0.14512600  -0.49622000
H    0.32414400   0.38136000   1.15219600
H    2.96205300  -1.09870600   0.44563500
H    2.51467400  -0.53325200   2.04979400
H    1.70656900   2.09062600  -0.29392700
H    3.09297700   2.99041800   0.39816300
H    1.76744600   2.36777100   1.46412400
H    4.90091900   0.03717300   1.24796100
H    4.91476400   1.83274100   1.15230300
H    4.70746400  -0.12858100  -1.20497700
H    6.12631300   0.84451300  -0.72621800
H    4.87458600   2.00967100  -2.31742500