10

O    1.09233300  -0.15711100  -0.47124100
C    2.14377500  -0.09101200   0.00220500
C    3.00091200   1.47086800  -0.07167500
C    2.60125100   2.11474900   1.11998900
C    2.22268400   2.64731700   2.15663100
C    4.39944800   1.12713500  -0.20293900
N    5.50252900   0.80142600  -0.32364200
H    2.78077200  -0.84596500   0.51609900
H    2.55362900   1.88368200  -0.99228200
H    1.89940700   3.13466600   3.06792500