14

C    0.99395900  -0.00573700   0.08657700
C    2.46052900   0.03430600  -0.01832000
C    3.32025200  -1.07786900  -0.12908900
N    4.58851500  -0.69224200  -0.20385400
C    4.72368500   0.75276400  -0.15031100
O    5.76523800   1.30938300  -0.20143000
C    3.30172700   1.26566600  -0.02538900
H    0.59599400  -1.02731900   0.06611100
H    0.54256100   0.57809400  -0.73462000
H    0.67100100   0.49217400   1.01773900
H    3.03401000  -2.13137500  -0.15455900
H    5.39670400  -1.31095200  -0.28940100
H    3.05957700   1.94314400  -0.86327400
H    3.18641300   1.86660200   0.89398800