15

C    0.90895100   0.26141000   0.50899400
C    2.31524400   0.18367000   0.01013700
C    2.89914300  -1.00792700  -0.45924600
C    2.19919700  -2.29387500  -0.54906200
O    3.05877800  -3.26947800  -0.98915600
C    3.12912600   1.31345100   0.02428000
C    3.83932000   2.31179600   0.03759400
H    0.56035300   1.29847200   0.57242600
H    0.86326600  -0.17468900   1.52291600
H    0.22415400  -0.31618000  -0.12867900
H    3.94494700  -0.99301100  -0.78908400
H    1.31575100  -2.13078300  -1.21696600
H    1.73963200  -2.50275400   0.44796400
H    2.60646300  -4.11520200  -1.07222200
H    4.46671300   3.19165400   0.04906500