15

O    0.86963400  -1.18919500   0.25356100
C    2.07139600  -0.76090200   0.48165200
C    2.98668500  -0.71788000  -0.56972300
C    4.41260400  -0.34805800  -0.40096400
C    4.85136900   0.66641900  -1.46474500
C    3.75904100   1.67957800  -1.65042200
O    2.63023300   1.45452000  -1.27754500
H    0.29349200  -1.16039600   1.03303400
H    2.33660800  -0.42075900   1.49077200
H    2.64144400  -1.12038100  -1.52856300
H    4.59572800   0.04928900   0.60853000
H    5.02634000  -1.26059100  -0.50635000
H    5.00484800   0.19531200  -2.45355700
H    5.80705600   1.14953000  -1.21333700
H    3.99179400   2.63405500  -2.16730000