14

C    1.14433200  -0.32867600   0.53697400
C    2.51894100  -0.40833600  -0.14132000
C    3.10844800   0.94460200  -0.31023800
N    4.25589000   1.25945900   0.12533200
O    4.93243000   2.32730000   0.25079900
C    4.38852800   3.31326600   1.25204200
O    3.32907400   3.15430200   1.70067000
H    0.72741300  -1.34130300   0.60771500
H    0.43945300   0.28721800  -0.03964900
H    1.22257500   0.08036800   1.55349500
H    2.41299800  -0.82102800  -1.16016700
H    3.21687700  -1.05118900   0.41195600
H    2.56142200   1.72998400  -0.86425700
H    5.17030400   4.08220700   1.35984800