18

C    1.41269100  -0.23856000   0.25286600
N    2.48280500   0.04978100  -0.63570000
C    3.09010300  -0.34996200  -1.85281400
C    3.13306900   1.08606000  -1.37857600
C    4.36711100   1.72721200  -0.81289400
C    5.64547300   0.97097400  -0.56916000
C    5.56038700   1.93248000  -1.71168600
H    1.48502600   0.40753400   1.13811500
H    1.42075400  -1.30413600   0.51733400
H    0.46176500  -0.00916600  -0.27035100
H    2.40447900  -0.66269000  -2.65079600
H    3.99254300  -0.96725100  -1.74870500
H    2.41909800   1.78597300  -1.83775400
H    4.12471200   2.53627100  -0.11760100
H    5.69989500  -0.09643000  -0.80070600
H    6.21867200   1.25357800   0.31592600
H    6.07987900   2.88994800  -1.64154700
H    5.51396300   1.51860900  -2.72258400