15

C    0.88303400  -0.42939600  -0.11254500
C    2.31945800   0.08058600  -0.05625600
O    3.26275000  -0.81175500  -0.55419800
C    2.54719000   1.43733700  -0.65149100
C    1.64914400   2.46219000  -0.70113900
C    2.08219500   3.70267900  -1.24858300
O    1.41124500   4.72322100  -1.36537200
H    0.18670100   0.23454400   0.41806000
H    0.84028500  -1.41156500   0.37570800
H    0.54271100  -0.53749600  -1.15412200
H    2.58246200   0.25374200   1.01255900
H    2.89141500  -1.30791200  -1.29201900
H    3.56650300   1.57856700  -1.03511200
H    0.61915400   2.39348400  -0.34444700
H    3.12877300   3.82550800  -1.62668900