21

C    1.78701400  -0.94406500   0.33565900
C    3.27102700  -0.47726500   0.37691100
C    4.13590900  -1.29159800  -0.57942700
C    3.19607800   0.97833400   0.05855700
C    4.85089100   1.75478300   0.03609400
C    4.65044600   3.21086900  -0.24413600
O    5.43629300   1.40066900   1.16767100
H    1.15012900  -0.37402200   1.02579400
H    1.76356400  -1.99958500   0.64368000
H    1.37012500  -0.87247700  -0.67937700
H    3.63145700  -0.60449400   1.40901800
H    3.84251400  -1.12789300  -1.62854300
H    4.03068000  -2.36414700  -0.36813700
H    5.20495200  -1.05161600  -0.46540200
H    2.71115400   1.61314800   0.81355000
H    2.88200000   1.22610800  -0.96608200
H    5.21218300   1.11647400  -0.78763600
H    4.16686200   3.73314400   0.59574700
H    4.05699500   3.36662700  -1.15290600
H    5.64527600   3.66035400  -0.40757200
H    5.39802200   2.09587900   1.84579800