11

C    0.92444600  -0.13956100   0.00000000
C    2.12479600  -0.01162300   0.00000000
C    3.57319300   0.11681500   0.00000000
C    4.09181400   1.45632900   0.00000000
C    4.55418000   2.60737500   0.00000000
C    5.04951800   3.85082900   0.00000000
C    5.50410300   4.99653300   0.00000000
H   -0.14637900  -0.25886300   0.00000000
H    4.03283500  -0.40551100  -0.86949100
H    4.03283500  -0.40551100   0.86949100
H    5.90393300   6.00275400   0.00000000