14

O    3.08164800  -0.93012200  -0.55055700
C    2.29595600   0.11882100  -0.07009200
C    1.77413600  -0.15574200   1.27616300
N    1.37170900  -0.31369300   2.34630300
C    3.31693300   1.23340900  -0.04847400
C    3.34397600   2.37586100  -0.98888900
C    2.66742600   2.88901100   0.21889800
H    2.89657500  -1.10826100  -1.48284000
H    1.44450900   0.36159100  -0.73002800
H    4.17900000   1.05211500   0.60452800
H    2.69065900   2.27423700  -1.86455200
H    4.34374400   2.78427600  -1.17870200
H    3.22734600   3.36107400   1.03241900
H    1.57524800   2.88506800   0.29623400