14

C    0.89613100   0.39670300  -0.29504400
C    2.31918400   0.07732300  -0.02900500
C    2.84972000  -1.18097300   0.32138100
C    2.09224500  -2.35393600   0.47632600
C    2.70329900  -3.54273300   0.82244700
C    3.25736400   1.14134900  -0.13452400
N    4.02219100   2.01124600  -0.22108300
H    0.56907300   1.19637000   0.39219000
H    0.22625800  -0.46289900  -0.19768200
H    0.80315400   0.82109200  -1.30992200
H    3.93165200  -1.23712600   0.48216300
H    1.01001300  -2.33886400   0.32465000
H    3.78453900  -3.60144600   0.98354500
H    2.12225600  -4.46069100   0.94554800