11

O    1.41687200  -0.42602300   0.83546000
C    2.21621900  -0.14548400   0.04812700
C    3.04274500   1.41371300   0.10704300
C    2.64073100   2.16120200   1.24612300
C    2.28390900   2.79265600   2.22265300
C    4.42253100   1.07672000  -0.02052700
C    5.59021500   0.74887700  -0.12247900
H    2.59559500  -0.70359100  -0.83503800
H    2.57861100   1.77230400  -0.83517000
H    1.97184200   3.36442700   3.08413300
H    6.63180400   0.47806600  -0.21523700