11

C    0.85981200   0.12991500  -0.00454200
C    2.08355500   0.08590200  -0.00083000
C    3.46275500   0.03269100   0.00340900
C    4.36691200   1.13911900   0.00519700
C    5.68417400   0.73413500   0.00955300
C    5.80632200  -0.67167400   0.01114600
S    4.32333200  -1.49529800   0.00736400
H   -0.22004000   0.17201400  -0.00759900
H    4.01822900   2.17243900   0.00323800
H    6.54556400   1.40217300   0.01158900
H    6.74273900  -1.23556700   0.01448400