19

C    1.93893000  -0.76943800  -1.27246400
C    3.14228800  -0.40039100  -0.40968800
C    3.51986400   1.01970600  -0.43818200
C    4.77246900   1.54836700  -0.06001400
C    5.86096500   0.63794800   0.40322700
C    4.90903000   2.96032700  -0.16685500
C    6.04635400   3.67193500   0.12629600
H    1.68419400  -1.82738300  -1.13214000
H    2.15530500  -0.61341900  -2.33862300
H    1.05557100  -0.17164000  -1.00563600
H    4.01701900  -1.03944900  -0.61816900
H    2.91526700  -0.60637900   0.66277800
H    2.75096900   1.73820500  -0.75053900
H    6.19643400   0.00081900  -0.43208900
H    5.48954400  -0.03735300   1.18892900
H    6.73442000   1.16812700   0.79543700
H    4.03623800   3.51922800  -0.51843600
H    6.96459400   3.19856000   0.48153700
H    6.06262400   4.75798500   0.00621400