12

N    0.95987200   0.04745900   0.01331600
C    2.11807900   0.01339000   0.00972400
C    3.53424300  -0.00749900   0.00626200
C    4.34859400  -1.11548600  -0.06248200
C    5.73317600  -0.64517700  -0.03579500
O    5.71350200   0.73749700   0.04825700
C    4.40235500   1.19258200   0.07772900
H    4.03427200  -2.15892200  -0.12546200
H    6.33033700  -1.07047600   0.80984800
H    6.32933800  -0.96520100  -0.92713800
H    4.23144500   1.91253100  -0.75785900
H    4.23417700   1.80762200   0.99365000