16

C    1.04439500   0.06505900  -0.10248200
C    2.51447000  -0.08550600  -0.01882600
C    3.06683100  -1.45626200  -0.12733600
C    3.30793000   1.06238000   0.15392700
C    4.70074700   1.06427100   0.27022600
N    5.28357300   2.24959500   0.41792700
O    6.57711800   2.13862400   0.51243200
H    0.72222900   1.09176200  -0.31425600
H    0.62353800  -0.23025600   0.87873700
H    0.61288000  -0.63474800  -0.83401400
H    2.41959000  -2.17177000   0.40186900
H    4.09942600  -1.56923000   0.21972700
H    3.02659600  -1.74890600  -1.19349600
H    2.81675000   2.03917300   0.19800300
H    5.32373100   0.16177000   0.24382900
H    6.92841400   3.04009300   0.61932300