16

O    1.50524400  -0.06435400   1.00282800
C    2.63643800  -0.13141200   0.18468200
C    3.09338600   1.27801200  -0.03202000
C    4.12978000   1.77013000  -0.73684500
C    4.15633700   3.25548300  -0.63881700
N    3.03899900   3.56581900   0.18749400
C    2.33889400   2.40244400   0.59811200
H    1.16548900  -0.94707600   1.17669200
H    2.42514700  -0.59482600  -0.79791100
H    3.46122700  -0.70907500   0.64393000
H    4.86453600   1.20414600  -1.30869800
H    5.09069300   3.66898600  -0.19589700
H    4.07064700   3.78082100  -1.61703600
H    2.77388200   4.51347400   0.45240600
H    1.26738200   2.43988100   0.29747000
H    2.27954000   2.32858400   1.70761000