17

C    0.64677700  -0.10543400   0.16677100
C    2.03981900   0.31044900  -0.07391200
C    0.92248900   1.35429500  -0.22507200
C    0.75528600   2.48493300   0.76012100
C    0.27858400   3.63444200  -0.01315900
C    0.14698600   3.29948900  -1.35352200
C    0.52611500   1.90159200  -1.57424200
H    0.31462300  -0.27295300   1.19437000
H    0.14006700  -0.71728600  -0.58371500
H    2.53359800  -0.00256200  -0.99725300
H    2.70814900   0.44175000   0.78075000
H    1.68533000   2.74859900   1.31470000
H    0.05366100   2.26143400   1.59666600
H    0.05910700   4.61640200   0.41254200
H   -0.19146800   3.97864100  -2.13954600
H   -0.30581200   1.34623200  -2.06566900
H    1.32585600   1.83350700  -2.34744900