19

C    0.85323200   0.03534400   0.10256600
C    2.31723500   0.19794500  -0.03665100
C    3.16613100   1.02911300   0.88179400
C    4.22758100  -0.06122600   1.19505700
C    5.50161700   0.03511700   0.36988000
C    3.35288000  -1.24498200   0.84499000
O    3.71471300  -2.22161000   0.06712900
H    0.47911500  -0.85158600  -0.42693400
H    0.38831400   0.91577900  -0.38443300
H    0.52025500   0.03169900   1.14982400
H    2.72159500   0.05092900  -1.04801400
H    2.61495300   1.34570900   1.77698000
H    3.59943200   1.91585600   0.39409800
H    4.46401500  -0.09916000   2.27229500
H    5.29949200   0.11034400  -0.71199800
H    6.17418400  -0.81744500   0.55449000
H    6.05517700   0.94073200   0.65177400
H    2.55484800  -1.54740900   1.53620000
H    4.54039800  -2.03476800  -0.41110800