13

C    1.02525500   1.14634600  -0.34013800
N   -0.16357600   1.40393300   0.47705300
N   -1.27275100   0.75096500   0.36710900
C   -1.38037500  -0.46617000  -0.08269400
O   -0.46421700  -1.39196400  -0.18777600
C    0.87889800  -1.30787600   0.09194100
C    1.60063700  -0.18624700   0.04500800
H    1.73581100   1.96199300  -0.16561800
H    0.72451300   1.17817200  -1.40138000
H   -0.19607200   2.20204600   1.11522900
H   -2.38051400  -0.82347300  -0.34286600
H    1.28141800  -2.29661200   0.31225600
H    2.66010300  -0.25736300   0.29945600