19

C    1.14484800  -0.18417100   0.16876700
C    2.59691100  -0.36563900  -0.13043300
C    3.14549600  -0.52429800  -1.46354900
C    3.30666000   0.91607300  -0.96279900
C    4.47936800   1.46343600  -0.38065400
C    4.56521800   2.94962600  -0.23608200
C    5.54417100   0.65370500   0.03574200
H    0.98549900   0.48585900   1.02467000
H    0.74101200  -1.17215000   0.44851800
H    0.57991000   0.18081900  -0.69932500
H    3.22257400  -0.69029600   0.70701000
H    2.44151500  -0.58969600  -2.29886000
H    4.06689700  -1.09604800  -1.59559900
H    2.55341300   1.62916200  -1.30627300
H    4.69966800   3.40303500  -1.23286000
H    5.40401200   3.25982200   0.39812400
H    3.62973200   3.35749400   0.17460500
H    5.53170600  -0.43407600  -0.06763400
H    6.43852600   1.10001000   0.47715500