17

C    4.09188400  -1.69264900   1.90207300
C    3.29697600  -1.18870800   0.73856700
N    2.10504700  -1.49753900   0.37040800
N    3.87354000  -0.24857300  -0.10591200
C    5.12557600   0.31817600  -0.03353200
C    5.84109900   0.70621900  -1.35910400
C    5.30567500   1.78264400  -0.52645200
H    5.01610700  -2.18570200   1.56424300
H    3.50018100  -2.42256200   2.46643500
H    4.36242500  -0.86964600   2.58094800
H    1.66964900  -2.18985900   0.98528800
H    3.24005500   0.02347000  -0.86526800
H    5.74053000  -0.02078100   0.80014700
H    5.31992500   0.43141300  -2.27990000
H    6.91235900   0.48956700  -1.34591200
H    5.97842100   2.36700700   0.10651100
H    4.39216300   2.29643700  -0.83712000