17

C    0.88480600   0.03022100   0.14155700
C    2.39763500  -0.03959300   0.01730500
C    3.20229700   1.02845800   0.79739400
C    4.11851300   0.04433800   1.47983600
O    5.06572500  -0.10496200   2.12295700
C    3.08137400  -1.18602600   0.75585100
C    3.86825900  -2.24469000   0.06330800
H    0.41492600  -0.82558500  -0.36253100
H    0.50598400   0.94645900  -0.33299400
H    0.56473200   0.03002300   1.19485800
H    2.70513100  -0.03966900  -1.03849200
H    2.63464500   1.55275800   1.58643400
H    3.80157000   1.74986600   0.21809600
H    2.55972400  -1.50371100   1.67750100
H    4.49551800  -1.84970000  -0.74847800
H    3.11994800  -2.91579000  -0.40206000
H    4.47042600  -2.84314400   0.75865500