18

C    1.54647500  -0.30362500   1.18379500
C    2.78424900   0.06605800   0.38427400
C    3.12894800   1.50176300   0.24081700
C    2.15998700   2.53607600   0.63587500
C    4.40483600   1.81157400  -0.30701600
C    4.99930700   3.13270800  -0.50971700
H    1.42856200  -1.39452100   1.19443400
H    0.62960800   0.12241700   0.75286800
H    1.62709700   0.03142500   2.22851200
H    2.69474700  -0.30252100  -0.66419600
H    3.68099400  -0.47179900   0.74739600
H    1.19241500   2.33705900   0.14181300
H    2.47248200   3.56431400   0.43245500
H    1.94218000   2.42270000   1.71439500
H    5.01363500   0.95178000  -0.61602300
H    4.40278500   3.97792200  -0.15222700
H    5.21195000   3.25909100  -1.58974500
H    6.00060700   3.15416000  -0.04093200