19

C    1.16217100  -0.84992100   0.67348700
C    2.63977000  -0.83232500   0.30165700
C    3.21742400   0.58653400   0.28112800
C    4.68199900   0.60978300  -0.07928000
O    4.99595600   0.25917100  -1.43193200
C    5.39639300   1.90639600  -0.35539100
C    4.78057500   3.05597300  -0.81837500
H    0.77830700  -1.87865100   0.68593300
H    0.55814000  -0.27708700  -0.04663500
H    0.99680600  -0.41942900   1.67248500
H    2.78219900  -1.30438000  -0.68522100
H    3.21527300  -1.44230500   1.01704100
H    3.11610700   1.05266800   1.27520500
H    2.63930600   1.21809900  -0.41746100
H    5.28296500  -0.04165400   0.56741500
H    4.24668500   0.46003000  -2.02207400
H    6.48682800   1.87810900  -0.26402300
H    3.71461500   3.09695000  -1.06094900
H    5.35698500   3.98142600  -0.91246000