17

C    2.04731800   2.45527300   1.77971600
O    3.02208600   1.42115800   1.46647400
C    3.22326900   0.95607000   0.08622700
C    4.69282800   1.21029500  -0.23420900
C    5.15430900   2.66044900  -0.50996300
O    6.01906400   2.61535200   0.64642100
C    5.56898300   1.39073800   0.99202000
H    2.12317300   2.63057300   2.85774700
H    1.06137800   2.05060000   1.52874100
H    2.27228000   3.36425500   1.20770700
H    2.53051300   1.51034300  -0.56052400
H    2.96484300  -0.10926600   0.08825700
H    5.05030400   0.47863100  -0.97461100
H    4.39743400   3.45429500  -0.41449200
H    5.73956300   2.81393900  -1.42564800
H    6.21592400   0.71203800   1.55917400
H    3.98574700   1.57488500   1.80846900