13

O    0.94562200   0.16817700   0.01096000
C    2.31419400  -0.06143600   0.01489400
C    2.93810800   1.34196900   0.00298800
C    4.36942800   1.39599600   0.00187800
C    5.59430200   1.44623000   0.00080900
C    6.96968600   1.48914300  -0.00062100
O    7.65503400   2.52321800  -0.00321100
H    0.46763400  -0.66658600   0.01992400
H    2.66370800  -0.62081400  -0.87342400
H    2.66127700  -0.60456600   0.91415800
H    2.58048200   1.92274000   0.87505100
H    2.58107600   1.90659600  -0.88001100
H    7.59798300   0.56136000   0.00033700