14

O    0.85265100   0.26545300   0.13351800
C    2.18802000   0.08299000   0.06949300
C    3.22134000   1.00664600   0.81893400
N    4.00479900  -0.18273900   1.00201300
C    2.93039300  -1.10983300   0.78269700
C    2.65496100   0.04404100  -1.40484900
O    3.81504000  -0.11114100  -1.64397100
H    0.50533900   0.29789600   1.03190600
H    2.79962500   1.35905400   1.77992400
H    3.72794600   1.83662400   0.30788300
H    5.00045400  -0.31629100   0.80799300
H    3.19667300  -2.02805600   0.24173000
H    2.42478800  -1.36747000   1.73323500
H    1.85993600   0.16645400  -2.17139700