18

C    1.06332400   0.03436900   0.26150900
C    2.50173800   0.24665100  -0.16751600
N    2.67832500   0.28278600  -1.52071200
C    3.32656500   1.29072400   0.61088500
C    4.21337900   0.51591900   1.59146900
O    4.55690100  -0.65477100   0.85760900
C    3.44249700  -1.22272700   0.41754700
H    0.99465700  -0.06564500   1.35240100
H    0.62658700  -0.86505800  -0.19754300
H    0.46297900   0.90657100  -0.03813000
H    3.54689100   0.61614100  -1.93267700
H    2.00912900  -0.15216100  -2.15231500
H    2.65787600   2.00202100   1.11489400
H    3.95450600   1.86472400  -0.08532600
H    5.13860000   1.03610300   1.86004200
H    3.67258600   0.23718200   2.51189600
H    3.61479500  -1.95527800  -0.37856100
H    2.72231600  -1.54764100   1.18900800