18

C   -1.74219900   0.83341600   0.54351700
C   -1.18759500  -0.25927700  -0.31345900
C   -0.38182100  -1.39542200   0.29169100
C    1.06744000  -1.33094500  -0.17803300
N    1.64060700  -0.03451200   0.03486600
C    0.85837800   1.12509700   0.38812400
C   -0.50638800   1.09535500  -0.26920800
H   -2.66303200   1.32042200   0.21904900
H   -1.63822200   0.74558900   1.62938900
H   -1.72874100  -0.49961900  -1.23203300
H   -0.40067100  -1.35243500   1.39265800
H   -0.79407400  -2.37344800   0.01189400
H    1.73171800  -2.07559000   0.29637600
H    1.14353500  -1.53355100  -1.26965800
H    2.65731300   0.06104800  -0.04219200
H    0.77772700   1.10559400   1.49810100
H    1.44266200   2.02359700   0.14492900
H   -0.58751700   1.73715000  -1.14999100