17

C    2.29982400  -0.43164800   1.43122000
C    2.82234800   0.01389600   0.06761700
C    3.12231600   1.45309900  -0.04911600
N    4.04777000   1.90048600  -0.89569300
N    4.06859300   3.19667400  -0.82597000
C    3.12995100   3.80953000   0.10781900
C    2.44915500   2.56885400   0.68562200
H    2.09236000  -1.50880900   1.41088400
H    1.36359500   0.07821500   1.70105800
H    3.04105600  -0.25013800   2.22288900
H    2.05912900  -0.18926400  -0.71290000
H    3.71134900  -0.55056500  -0.25261400
H    4.73166500   3.70147100  -1.41818900
H    2.45574200   4.48481700  -0.44263800
H    3.68521100   4.41185400   0.84386700
H    1.35947400   2.54173100   0.51905000
H    2.59522200   2.45315600   1.77239100