16

C    0.95376500  -0.34096600  -0.05385600
C    2.43472500  -0.15194000  -0.07632300
O    3.12312900  -0.61014000  -1.10909300
C    2.80676000   1.61404500  -0.02541700
C    4.28457000   1.84598200   0.10474800
C    4.83882600   1.23383800   1.30924200
N    5.19406200   0.67875900   2.25778100
H    0.50143400   0.15516300   0.81325700
H    0.75444200  -1.42337700   0.03585600
H    0.47135200   0.02521700  -0.97370000
H    3.00067900  -0.34141600   0.86056900
H    2.56666100  -0.81686500  -1.88164600
H    2.21205000   1.87861500   0.85920700
H    2.36524500   1.96641300  -0.96663000
H    4.41324300   2.94631900   0.15619900
H    4.84211000   1.51182900  -0.78285300