14

C    1.32657700  -0.26962300   0.08249000
N    2.35059200   0.39264900  -0.64915800
C    2.96789800   1.66635300  -0.26303900
C    2.23042600   2.35516600   0.79071100
C    1.64595200   2.96204000   1.65378600
C    4.35255100   1.31796500   0.08656800
C    5.48446100   0.99982200   0.36222000
H    1.13362300  -1.26249400  -0.33563500
H    0.41118200   0.35388300   0.06374000
H    1.62279100  -0.32666300   1.14758700
H    2.77930800  -0.07280000  -1.45640100
H    2.97434500   2.29346600  -1.17897000
H    1.12739500   3.50822800   2.42508100
H    6.49913500   0.73663100   0.61487000