17

C    2.37935700  -0.53853900   0.65642900
C    2.10135500   0.52088900  -0.39977700
C    3.26906600   1.33678400  -0.87240700
N    3.20632500   2.30795600  -1.79274900
N    4.48497200   1.15075100  -0.39960300
C    5.83734500   1.59710100  -0.48271600
C    5.42538300   0.48780200   0.44931700
H    1.44414400  -1.05473600   0.90705600
H    2.76704300  -0.09949200   1.58678500
H    3.08492500  -1.30144400   0.29758500
H    1.34851300   1.24493600  -0.04218000
H    1.65981700   0.06803200  -1.30468600
H    2.24470200   2.42389300  -2.13735700
H    6.02944200   2.59648200  -0.07791400
H    6.35824700   1.35154500  -1.41432100
H    5.65602600  -0.54937800   0.18395400
H    5.32737200   0.69523300   1.52016400