19

C    1.19904400  -0.17810300   0.29613100
C    2.66511200   0.19930400   0.12844600
C    2.79296900   1.57381700  -0.59854400
N    4.16337900   1.92662000  -0.76838000
C    4.89752600   2.79139900   0.11021600
C    6.39149100   2.52183700   0.11503100
H    1.13030900  -1.14295300   0.81707700
H    0.69349600  -0.28394200  -0.67446200
H    0.65374100   0.56621900   0.89407400
H    3.19983800  -0.56445300  -0.45698900
H    3.16490400   0.27800500   1.10638400
H    2.29598900   2.35698500  -0.00765600
H    2.32421000   1.49770000  -1.59241500
H    4.67696300   1.49163100  -1.54245100
H    4.43655200   2.71782200   1.11017500
H    4.68131500   3.82726500  -0.23495200
H    6.61313400   1.51324100   0.49053400
H    6.88287400   3.24585500   0.77758800
H    6.82820900   2.64096900  -0.88745700