14

N    1.04927000  -0.26300000   0.13250400
C    1.84812000   0.58482400  -0.53344900
O    1.61442800   1.05273200  -1.63830500
C    3.10157700   1.01489100   0.14911700
C    4.21945300   1.54384000  -0.70112900
C    3.60575000   2.87219900  -0.72660300
O    4.02002800   3.78128200   0.06710900
H    1.29688200  -0.66668800   1.02643900
H    0.19548400  -0.57569300  -0.31885200
H    3.20225800   1.04341500   1.23950600
H    4.21891600   1.08573700  -1.70028600
H    5.19464400   1.53150000  -0.19937200
H    2.75286800   3.05328100  -1.39888400
H    3.49167800   4.59871200   0.04176700