11

C    0.99097200  -0.02303600  -0.02934600
C    2.20968000  -0.01906300  -0.01452900
C    3.60789500  -0.02500400   0.04245400
N    4.39537500  -0.61268500  -0.96934100
C    4.56236000   0.75936800  -1.18219800
C    5.62501700   1.48392700  -0.56319300
N    6.47686000   2.09763000  -0.07414900
H   -0.09051900  -0.02193500  -0.04134700
H    4.10688300   0.17932600   0.99974900
H    3.87955800  -1.10501100  -1.70530700
H    4.07331400   1.22958300  -2.04617900