13

O    1.93600000  -0.55341800  -1.14679500
C    2.01345500   0.08874700   0.02601300
C    2.86005200   1.31886100  -0.01256700
C    4.30905400   1.02911800   0.24682400
O    4.65322900  -0.12726800   0.63399800
C    5.30772500   2.00353200   0.09182200
C    6.13683900   2.87523700  -0.05927900
H    1.26264900  -1.24619100  -1.13373500
H    3.83652200  -0.69399400   0.68757300
H    1.20286700  -0.01626500   0.75377600
H    2.55240500   2.06011000   0.74800400
H    2.79151100   1.84325400  -0.98438600
H    6.88504500   3.64429300  -0.19099600