18

N    1.81617000  -0.31309400  -1.12813200
C    2.32212100   0.17811000   0.06707900
C    3.42664600   1.30709300  -0.17663400
C    2.85225300   2.56806100  -0.83894800
C    2.42777500   3.44827900   0.36752500
O    2.67714600   2.65801500   1.52110600
C    3.75273500   1.83533300   1.23125200
H    1.31581100   0.29234600  -1.77999600
H    2.00002200  -1.26604800  -1.44411400
H    2.73011500  -0.63765100   0.67463700
H    1.55036600   0.74315800   0.63885400
H    4.27338700   0.85677800  -0.71181700
H    2.01920400   2.36868700  -1.52944400
H    3.63161100   3.05921800  -1.43740400
H    3.02553600   4.37296300   0.41329400
H    1.36637300   3.72508000   0.37146900
H    4.70599800   2.39974000   1.14592100
H    3.86468500   1.07910200   2.01900300