19

C    0.96734400   0.04238800  -0.10080200
C    2.52410600  -0.03424500  -0.01130100
C    3.04942200  -1.31217500   0.67697900
C    3.38100000  -0.87735000   2.11266800
C    3.52706000   0.59408800   2.06526100
C    4.10644500   1.42246700   3.12942400
C    3.02719300   1.06336900   0.82647200
H    0.62411800  -0.77162300  -0.75260600
H    0.63755800   0.99742100  -0.53060100
H    0.50919800  -0.08211400   0.89062300
H    2.89149600   0.08688400  -1.04720100
H    3.96385700  -1.66096000   0.17512600
H    2.32626200  -2.13648100   0.63978800
H    4.25065500  -1.37143800   2.57840500
H    2.54534900  -1.08484500   2.81738800
H    3.82081100   2.47943400   3.05565300
H    5.20953100   1.36566600   3.03077400
H    3.87561100   1.01809400   4.12611800
H    2.98558300   2.12191800   0.55103300