16

C    1.42674100   0.10673200   0.98380300
C    2.28790300  -0.05569600  -0.01383300
C    2.84275300  -1.36181400  -0.55667200
C    4.15357300  -0.95030900  -1.17713100
C    5.18143600  -0.03509700  -0.42174000
N    4.16719500   0.46872600  -1.25993600
C    2.94019300   1.09141100  -0.79177700
H    1.10684200   1.09693400   1.31647600
H    0.99455900  -0.75761000   1.49456800
H    2.19237100  -1.79084000  -1.33772600
H    2.98198900  -2.13616700   0.21250400
H    4.63963000  -1.53389200  -1.96725400
H    5.11673100   0.21848300   0.64269100
H    6.18333100  -0.12783900  -0.85538300
H    3.15289700   1.99268900  -0.20329200
H    2.35594700   1.36062900  -1.68855600