15

C    0.99517300   0.11481600  -0.22895700
C    2.48603500   0.29009800  -0.32898000
O    3.14783100  -0.62787000  -0.78985700
C    3.18287300   1.53013600   0.09945900
C    2.51433800   2.64706300   0.40654400
C    4.68713100   1.35147200   0.13636600
O    5.03742900   0.49884800  -0.91932900
H    0.52400000   0.83493800  -0.91592400
H    0.66666500   0.32927500   0.79730700
H    0.71259800  -0.90305300  -0.51863700
H    1.42318900   2.69531500   0.40753400
H    3.04607500   3.56629000   0.66649300
H    5.00164700   0.94716800   1.11225000
H    5.17077400   2.33063300  -0.01829700
H    5.63974600  -0.20684400  -0.63969200