14

C    0.92659800   0.04502400   0.11981900
C    2.13227900  -0.02279000   0.04597100
C    3.54605300  -0.07642600  -0.04172300
C    4.34534300  -1.16943200  -0.06586900
C    5.76834900  -0.75899100  -0.16493200
N    5.72313700   0.66207400  -0.19652200
C    4.39292200   1.16227600  -0.12464100
H   -0.14764100   0.09621900   0.18617200
H    4.01995200  -2.20763900  -0.02065100
H    6.40331800  -1.10852500   0.68175700
H    6.29468300  -1.15117300  -1.06562000
H    6.54936600   1.25559900  -0.26212000
H    4.16235200   1.79920200  -1.00703300
H    4.27284700   1.84148300   0.74807300