10

O    2.74980900  -0.99996900   0.33360000
C    2.14618800  -0.01918200  -0.04452900
C    2.86424700   1.25044100  -0.03276700
C    2.28329900   2.53012700   0.01599100
S    3.50790400   3.66140500   0.01871800
N    4.78222800   2.55892900   0.00237300
C    4.32543200   1.35315500   0.00511200
H    1.06448300  -0.06224600  -0.29047200
H    1.22159700   2.78938300   0.01605700
H    5.00668300   0.49694100  -0.03515200