20

C    1.72445300  -0.72646300  -0.37072900
O    3.01759700  -0.16744400  -0.45535200
C    3.06504000   1.19267600  -0.26096700
C    4.57003500   1.55057700  -0.35354800
N    4.79856100   2.95827700  -0.18263100
C    5.24829900   3.45583300   1.09121500
C    4.54717600   3.87864300  -1.25969100
H    1.82789100  -1.80380700  -0.54202300
H    1.05351900  -0.30238900  -1.13837500
H    1.28091600  -0.56108800   0.62697800
H    2.67380500   1.49706200   0.73227200
H    2.49708900   1.75460100  -1.03152100
H    4.92890600   1.24320500  -1.34797400
H    5.11210500   0.99339900   0.42179200
H    4.69525800   2.95375800   1.89992300
H    5.12418500   4.54314500   1.15015200
H    6.31765300   3.20103200   1.21088000
H    3.72181100   4.55474600  -0.97383600
H    4.29234200   3.33956800  -2.17846400
H    5.44261000   4.50298400  -1.41953900