21

C    2.00511800  -0.32300600   0.64492400
N    2.18859000   0.51922300  -0.51196700
C    2.99757400   1.62757800  -0.50789400
C    4.67933100   1.20925000  -0.52810800
C    4.95491900   0.36846300  -1.75637800
N    5.41778700   2.36909300  -0.45376600
C    5.54783700   3.15840400   0.74558200
H    1.05556500  -0.86721100   0.56184000
H    1.97931200   0.29413100   1.55359800
H    2.81824600  -1.06565900   0.74415700
H    1.91274900   0.13609600  -1.41133800
H    2.90404500   2.21152300   0.41935000
H    2.86150600   2.24882800  -1.40201900
H    4.76360400   0.63888600   0.41158400
H    4.77101400   0.93370600  -2.68337100
H    4.31613700  -0.52454000  -1.76458300
H    6.00179900   0.03424500  -1.75530400
H    5.66619900   2.81974800  -1.33135500
H    5.57430900   2.50029000   1.62462500
H    4.71022100   3.87160100   0.85972100
H    6.48064400   3.73639800   0.71090300