17

C    2.68634900  -0.85524600  -1.40251700
C    2.45506500  -0.04374600  -0.13934600
N    3.19495500   1.23288000  -0.13378100
C    4.45895900   1.32064100   0.21450800
O    5.22576300   0.49665000   0.61688000
C    5.14526500   2.88809700   0.09207200
N    4.25835400   3.82932600  -0.34612500
H    2.09717800  -1.78129400  -1.35237800
H    3.74416100  -1.13735300  -1.50667400
H    2.37343600  -0.30367200  -2.30067500
H    2.76006800  -0.60206200   0.75678100
H    1.39604000   0.21988200  -0.01464800
H    2.75123700   2.07674000  -0.48438700
H    5.97243000   2.69231500  -0.60211400
H    5.48411400   3.03725800   1.12518700
H    4.19642900   4.08111300  -1.32917700
H    3.72655300   4.39861400   0.30720700