12

N    1.21872500  -0.20211400  -0.56327000
C    2.53300400  -0.12296800  -0.57473700
O    3.34701900  -1.04601400  -0.60079500
C    3.31576500   1.13192000  -0.66385400
C    4.26777700   1.40920600   0.29635400
C    5.07107800   2.54442600   0.24288400
C    5.78668900   3.53317200   0.21661500
H    0.63990300   0.63077100  -0.54339700
H    0.76419300  -1.11246200  -0.57881500
H    3.24939200   1.71865400  -1.58802100
H    4.39307000   0.73033900   1.14929500
H    6.42314900   4.40569400   0.19264100