10

C    0.91338400  -0.16298800   0.00000000
C    2.12362600   0.00331200   0.00000000
C    3.55105800   0.15673300   0.00000000
C    4.10088100   1.47841900   0.00000000
C    4.60289500   2.59977300   0.00000000
C    5.15522700   3.84910300   0.00000000
N    5.62393700   4.91657500   0.00000000
H   -0.15789400  -0.31083300   0.00000000
H    3.99396100  -0.41342300  -0.85673100
H    3.99396100  -0.41342300   0.85673100