18

C    1.16481100   0.39542900   0.98293900
C    2.42136000   0.03226700   0.23726600
C    2.69296800  -1.19176400  -0.22550800
C    3.41487700   1.15068000  -0.02122700
C    2.97522200   2.52055300  -0.61569400
C    3.49909900   3.17410600   0.67795500
N    3.84311700   1.86782000   1.16431300
H    1.38163500   0.79428800   1.98744200
H    0.52566600  -0.48685500   1.11242300
H    0.57515700   1.15323600   0.44358000
H    1.98108900  -2.00979700  -0.09155400
H    3.61572600  -1.42377300  -0.76332600
H    4.31155400   0.72608600  -0.51625900
H    1.89353600   2.61888600  -0.76251400
H    3.49713400   2.81076200  -1.53441000
H    4.38259500   3.83721900   0.61030100
H    2.76620200   3.68060100   1.33507900
H    4.18654400   1.53728700   2.07363200