13

C    0.87030400   0.05577000  -0.02305700
C    2.33875600   0.02947700  -0.11608100
C    3.15411500   1.07707600   0.18927900
C    4.56644700   0.93821500   0.06162100
O    5.36362100   1.87482600   0.33072600
C    5.28563500  -0.21643000  -0.36772400
C    5.99271800  -1.13729700  -0.71779800
H    0.53820500  -0.75305000   0.65074500
H    0.44304100  -0.19490600  -1.00951700
H    0.47176100   1.01671100   0.32282800
H    2.79709300  -0.90818000  -0.45752500
H    2.77464400   2.04102700   0.53504200
H    6.60184400  -1.97305100  -1.03364900