13

C    1.01025400  -0.03278000   0.02046100
C    2.43326400   0.04144200  -0.04997400
C    3.67726000   0.10514600  -0.09272100
C    5.09802400   0.13783900  -0.13275600
O    5.62783000   1.39735900   0.16241000
C    6.63298200   1.36201200   1.07438300
O    6.95757200   0.35932000   1.63206300
H    0.56606000   0.97529000  -0.03301300
H    0.74463200  -0.44288800   1.01808200
H    0.59785200  -0.70295500  -0.74844200
H    5.47065300  -0.25629000  -1.10108900
H    5.49023900  -0.60638500   0.62500500
H    7.06822900   2.36726900   1.20541100