19

C    1.07280000  -0.42921400   0.55209400
C    2.33152500  -0.00573600  -0.13426200
C    2.74497900  -1.33929900  -1.36453100
O    1.88339000  -1.29204600  -2.35680000
C    2.33102700   1.30359400  -0.85762400
C    3.53118900   1.56428900  -1.76298900
O    4.66632600   1.02204600  -1.14101100
H    0.91338000   0.27943200   1.38622400
H    1.14224000  -1.42834000   1.00334200
H    0.18787000  -0.35941000  -0.09634900
H    3.25845000  -0.17476900   0.43517300
H    2.71276000  -2.21933000  -0.70769000
H    3.73167700  -0.92943500  -1.62356100
H    1.12376100  -1.88327800  -2.23333000
H    2.35528000   2.03496200  -0.02223600
H    1.38907600   1.47466500  -1.39891800
H    3.62070900   2.64892600  -1.93639500
H    3.34671200   1.09467800  -2.75007800
H    5.46932300   1.36854500  -1.54241500