13

C    0.66383800  -1.15992900  -1.46022200
C    0.74149900   0.02637700  -0.78871700
C    1.98401200   0.65196300  -0.45465900
C    1.96800100   1.87885500   0.24265200
O    3.07538300   0.00934900  -0.83842500
C    4.41138900   0.41395100  -0.63151200
O    4.72482500   1.40199200  -0.07582300
H   -0.30796900  -1.60161200  -1.69420600
H    1.56203900  -1.69532000  -1.77891300
H   -0.17001600   0.54352600  -0.47989600
H    0.99634700   2.30587100   0.50069700
H    2.88038900   2.40344400   0.52625200
H    5.05396200  -0.36056800  -1.08228600