14

C    3.74765200  -1.05849800   0.46198300
O    2.78775500   0.01651500   0.44201600
C    3.10897100   1.23166500   0.22870300
C    4.39960900   1.72426400  -0.01487800
C    4.58853600   3.08822700  -0.23116800
N    5.82846000   3.51135100  -0.45850300
O    5.86251100   4.80337000  -0.64360300
H    3.16778900  -1.96283900   0.66497500
H    4.47738300  -0.88364600   1.26397100
H    4.23836200  -1.13031700  -0.51796300
H    2.24467800   1.90749700   0.25135000
H    5.27329900   1.06840000  -0.04125800
H    3.76144800   3.81208200  -0.22005500
H    6.79336500   5.03672200  -0.80284200