15

O    0.36885100  -0.29396200  -0.40210900
C    1.61175900  -0.39966100  -0.00116400
C    2.63406100  -0.73638200  -1.01519300
C    2.96482100   0.70299100  -1.08282500
N    4.03946600   1.22940600  -0.51405100
N    4.18098400   2.58739700  -0.47505900
C    5.25293500   3.03850800   0.03795900
H   -0.22252500   0.03485600   0.28995800
H    1.86501400  -0.27824300   1.05715400
H    2.19386800  -1.13211200  -1.93942300
H    3.44432800  -1.37782100  -0.64414200
H    2.31210200   1.40603600  -1.60752300
H    4.76649600   0.62489000  -0.11642500
H    5.37622800   4.12407600   0.06882700
H    6.05541300   2.40215600   0.44577700