15

C    2.25337900  -1.12188700  -1.07628500
N    3.28355200  -0.61552900  -0.17397300
C    3.60403300   0.65483900   0.00157100
S    2.75568200   1.94977100  -0.76790400
N    4.66094000   1.01717000   0.74575300
C    5.74176000   0.19162900   1.11176900
C    6.63106300   0.54247400   2.04167500
H    2.51287600  -2.14912600  -1.35676200
H    2.21663400  -0.50582300  -1.98382000
H    1.26778800  -1.11981900  -0.58868200
H    3.71982500  -1.29296000   0.44708500
H    4.68849600   1.99185200   1.04016000
H    5.82674000  -0.73957800   0.54606300
H    6.55875900   1.47875800   2.60139400
H    7.47078000  -0.11728100   2.26212500