13

C    1.42743000  -0.36012800   0.11335100
N    2.77039400   0.03200100  -0.14112500
C    3.46076400   1.11160100   0.48355600
C    4.88036300   1.16826700  -0.09311500
O    5.22232200   0.37635900  -0.92516200
C    5.73676000   2.22160400   0.43590800
N    6.38808300   3.06800100   0.87719600
H    1.42091900  -1.42062800   0.43171900
H    0.86162900  -0.32912500  -0.83794900
H    0.95911200   0.27939500   0.86944800
H    3.34544800  -0.48086700  -0.83585600
H    3.47395300   0.96979000   1.58378000
H    2.91456700   2.06222600   0.31393900