14

O    1.24068700   0.02713000   0.54135800
C    2.30424700   0.05565500   0.03725000
C    3.16599900  -1.30460600   0.02006500
N    4.14114100  -1.25883800  -0.97679500
C    4.96152600  -0.08847200  -1.04122800
C    4.01267200   1.09797500  -1.32884400
O    2.92586800   1.12775300  -0.42292800
H    2.48173000  -2.15429500  -0.07654600
H    3.61369400  -1.27757900   1.03171500
H    4.03211400  -1.84415400  -1.80787900
H    5.45915900   0.06185100  -0.06985800
H    5.71481700  -0.17514800  -1.83351300
H    4.55853700   2.03964100  -1.19097600
H    3.62009000   1.04766700  -2.35514600