15

C    0.32584000   0.02212400   0.18889600
O    1.69833700   0.45811900  -0.07382300
C    0.69724700   1.38440900  -0.20381700
C    0.76571000   2.60313200   0.78013600
C    0.15353800   3.69576200  -0.05312500
C    0.01390300   3.36499200  -1.33131000
C    0.50097800   1.97617900  -1.64259600
H    0.17436700  -0.23630900   1.24331900
H   -0.02260200  -0.70157300  -0.55701600
H    1.81301600   2.81039700   1.05588600
H    0.21554300   2.33120500   1.69555000
H   -0.10305000   4.65884200   0.39387800
H   -0.37796400   4.00750100  -2.12302100
H   -0.20823300   1.32765400  -2.18207300
H    1.45837000   1.97048500  -2.18959300