15

C    1.08839600  -0.01934300   0.05420700
N    2.51853100   0.19296000  -0.06479300
C    3.21980100   1.25338500   0.39474200
N    4.51629000   1.14611100   0.22067300
C    4.74780200  -0.07796000  -0.43789400
C    4.41721800  -1.30557200   0.41900800
C    3.42725700  -0.74611600  -0.62199700
H    0.89762900  -0.87718100   0.71590900
H    0.67308500  -0.23438800  -0.94046800
H    0.61817900   0.88085800   0.46559200
H    2.72947700   2.09465500   0.89092900
H    5.59986000  -0.15382000  -1.11948000
H    4.92381400  -2.23679300   0.15635900
H    4.19096600  -1.15909900   1.47902100
H    3.08641600  -1.36630700  -1.45459700