18

C    3.72629600  -0.78926600   0.04105600
O    3.36531500   0.17651900   1.00523800
C    3.31661900   1.46962900   0.62407900
C    2.56303100   2.30895500   1.63293500
C    4.85733800   2.03353200   0.56734900
C    5.50147000   2.11915800  -0.80878500
N    5.07132700   3.24232500  -0.03191100
H    3.50489900  -1.77296200   0.46857500
H    4.81078000  -0.72635800  -0.16673800
H    3.16249400  -0.64725800  -0.89530200
H    2.94086800   1.59561300  -0.40950300
H    3.00094400   2.21726500   2.63664900
H    1.52739800   1.94258300   1.67836600
H    2.55346800   3.36291100   1.32547300
H    5.37240500   1.79173000   1.50571200
H    4.86799600   1.85278100  -1.66248500
H    6.57985100   1.98916200  -0.94789800
H    5.60664500   4.04027100   0.31528600