15

C    1.59262500   0.22788200   0.65461800
C    2.32232000  -0.80036300  -0.13565300
N    1.70191900  -1.88036700  -0.56445900
O    0.37328900  -2.02719200  -0.46151200
N    3.62203500  -0.78999800  -0.49857500
C    4.37965100   0.27422000  -0.28193700
C    5.72863800   0.23502100  -0.62230200
H    2.16651200   0.48474300   1.55577300
H    0.59471300  -0.12128100   0.93707300
H    1.48185100   1.14008300   0.04692400
H    2.22346500  -2.53299100  -1.15991500
H    0.19939100  -2.91061500  -0.09729100
H    3.97077100   1.19945300   0.15066600
H    6.15137800  -0.67337500  -1.05855700
H    6.37284600   1.10113400  -0.45942100