13

C    0.85793600  -0.10088800  -0.04674100
N    2.30495400   0.00459400   0.07511800
N    3.02451700  -1.07576600   0.20319300
C    3.08864000   1.23976300   0.07029700
O    4.27383700   1.13079800   0.18143000
C    2.32890200   2.44397900  -0.06884900
C    1.77230200   3.51145600  -0.18186700
H    0.44611900   0.90885600  -0.14256000
H    0.44754000  -0.57986900   0.85423200
H    0.60661500  -0.68564000  -0.94369600
H    2.57669500  -1.98910400   0.21857800
H    4.03791500  -0.93286300   0.28414300
H    1.27819700   4.46593100  -0.28261900