15

N    0.70693900   2.66749700   0.24737500
N    1.69663000   1.86834400   0.17086800
C    2.93307300   2.35822800   0.20581600
C    3.99530100   1.45586000   0.12037000
C    5.33022000   1.85325400   0.14699700
C    6.41022300   0.94009000   0.06062800
C    7.70894900   1.35335800   0.08901800
H   -0.22651100   2.26131800   0.21792500
H    0.80395400   3.68473900   0.33622300
H    3.11306300   3.44085700   0.30012800
H    3.74171000   0.39479700   0.02935200
H    5.56143400   2.92099300   0.23905100
H    6.18278100  -0.12658400  -0.03132700
H    7.96792500   2.41234100   0.18007300
H    8.53252600   0.63912700   0.02167100