15

C    0.38185000   0.33524800  -0.03831400
C    1.66906600  -0.39455800   0.01978400
C    1.71300500  -1.82014400   0.08681400
O    2.71985900   0.32940100   0.00604200
C    4.09858600  -0.18471400   0.05595100
C    5.00527900   0.94102000   0.02046000
C    5.78984900   1.85620600  -0.00750100
H    0.54790300   1.41705100  -0.08580900
H   -0.22386500   0.08307700   0.84778700
H   -0.19111400   0.00051700  -0.91884000
H    0.77253700  -2.37563300   0.09517600
H    2.64737300  -2.38325300   0.13028100
H    4.23709100  -0.84382200  -0.81519300
H    4.20312100  -0.75958400   0.98927700
H    6.49033700   2.67427800  -0.03252300