17

C    0.97905100  -0.20949000  -0.11864000
N    2.36541500   0.11533200  -0.17202700
C    2.93018600   1.45759200  -0.04964300
C    2.41423700   2.33513000  -1.22008400
C    2.53488100   2.05905200   1.32311000
C    4.39331000   1.30737300  -0.13597000
N    5.53879900   1.18598700  -0.20403000
H    0.81096700  -0.90930500   0.72235600
H    0.70570600  -0.76012600  -1.03786500
H    0.35792200   0.68392900  -0.00266400
H    3.02501100  -0.66116600  -0.30687700
H    2.67673000   1.89709400  -2.19199800
H    2.89900000   3.31714900  -1.13480300
H    1.32751500   2.47703000  -1.15069400
H    2.87937000   1.42394300   2.14981400
H    1.44852400   2.20604200   1.38698700
H    3.02245100   3.03972500   1.40728800