19

C    0.60352800   1.17374100  -0.04791400
C    1.91223200   0.47955300  -0.13917300
C    2.45082300   0.08530500  -1.46678400
N    2.58358200   0.23041300   0.93933000
C    3.87373600  -0.47629600   1.03070600
C    3.71633400  -1.94374100   0.77009500
N    4.85695000  -2.64526700   0.45396400
H    0.32582200   1.45041400   0.97713400
H   -0.17343500   0.51894700  -0.47386100
H    0.63090200   2.07580400  -0.67906800
H    3.35236000   0.68156800  -1.68709100
H    1.71610100   0.25711100  -2.26078100
H    2.75328700  -0.97389700  -1.44736600
H    2.16958300   0.52630500   1.82263400
H    4.57124200  -0.01895200   0.30901500
H    4.27309900  -0.24580900   2.03496700
H    2.98153300  -2.48570500   1.37301800
H    5.52777500  -2.23979000  -0.18983100
H    4.78489500  -3.65296200   0.38390600