17

C    0.80211500   0.23858800   0.09714100
C    2.18432600  -0.28014000   0.09150700
C    2.39197600  -1.74469000   0.07080900
C    3.26059500   0.63530500   0.09030800
C    4.67312100   0.31871800  -0.07794900
C    5.57549700   1.12731900   0.91184700
O    5.24345400   2.16579400   1.37869900
H    0.72680900   1.30731300  -0.13677000
H    0.39727300   0.07720500   1.11767700
H    0.15377400  -0.35385400  -0.56747100
H    2.48618800  -2.04999100  -0.99118000
H    1.52330600  -2.28104100   0.47479100
H    3.30818100  -2.06879800   0.58186900
H    3.02424400   1.69566100   0.24833600
H    5.01362500   0.73539000  -1.05157000
H    4.92173300  -0.75033500  -0.07936400
H    6.56382500   0.64938600   1.10100800