19

C    1.14212000  -0.11941800  -0.45911200
C    2.61761500   0.03090000  -0.76871200
N    3.29658300   0.93215500   0.11384700
C    4.67661200   1.34763800   0.03479500
C    5.50306800   0.53127500  -0.94112500
C    4.70224200   2.86802200  -0.25117200
H    0.69339600  -0.82251400  -1.17231100
H    0.61072400   0.83823300  -0.55634500
H    0.98247000  -0.52338800   0.55098700
H    2.80016000   0.39362500  -1.80103900
H    3.15887300  -0.93566500  -0.72573200
H    2.73528600   1.38078400   0.84587500
H    5.06376300   1.21390400   1.06564700
H    5.17082000   0.67211500  -1.98024100
H    5.48972300  -0.54102300  -0.70018400
H    6.54590100   0.86899600  -0.88167500
H    4.31397200   3.07635700  -1.25810800
H    5.74602300   3.20457600  -0.19779000
H    4.12232200   3.43786100   0.48845800