13

N    0.99856200  -0.04855000   0.00000000
C    2.32836300   0.02619500   0.00000000
N    3.15071000  -1.04352300   0.00000000
C    2.98415900   1.26998400   0.00000000
C    3.63359400   2.31185400   0.00000000
C    4.40357000   3.48483800   0.00000000
C    3.83184900   4.71240900   0.00000000
H    0.42234600   0.78748900   0.00000000
H    0.52253900  -0.94582000   0.00000000
H    2.62919800  -1.93153000   0.00000000
H    5.49161400   3.36437300   0.00000000
H    2.74644300   4.84115300   0.00000000
H    4.45148800   5.61235100   0.00000000