19

C    0.58859300   0.59646300  -0.31428500
C    2.05932000   0.39427300  -0.26694600
C    2.91836600   0.84796000   0.88021300
N    2.23033400   0.74946500   2.15235300
C    4.14793800  -0.08793000   0.93760400
C    3.62427200  -1.45817400   1.09351400
N    4.15720000  -2.51769100   0.58972200
H    0.15066200   0.13251000  -1.20738700
H    0.33440700   1.67444100  -0.35368000
H    0.07749700   0.18047700   0.56966600
H    2.58865400   0.22998000  -1.21270900
H    3.29771300   1.87177000   0.66349800
H    2.72387600   1.26070700   2.88157400
H    1.29227100   1.13976600   2.10711400
H    4.79706300   0.01042700   0.05422300
H    4.76257400   0.13978200   1.82908600
H    2.72880900  -1.56784800   1.72109700
H    4.99594600  -2.47489900   0.01065500
H    3.75375700  -3.44088600   0.74531400