13

N    1.66799600   1.54032400  -2.02935300
C    2.50199300   1.94372500  -1.18980300
C    3.03630900   3.40745700  -1.42093900
O    3.82515400   3.96076800  -0.73649200
N    3.04153400   1.29747700  -0.06833900
C    4.39293500   1.22804600   0.42509300
C    3.28369400   1.76859800   1.27093100
H    1.32041700   0.58805300  -1.87869800
H    2.54131400   3.81719100  -2.33358100
H    5.10600100   1.90530400  -0.06194200
H    4.75804200   0.21485100   0.63507100
H    2.88056400   1.12979800   2.06679700
H    3.16721200   2.85006900   1.41654600