17

C    1.06941700   0.11845700  -1.35272900
C    2.47893200   0.46189500  -1.09222600
C    2.88705800   1.59501100  -0.40277600
N    4.17075500   1.87801000  -0.18358300
C    4.67130500   2.99389500   0.49929600
N    5.92643100   3.08137000   0.60088900
C    6.53132200   4.19040700   1.28365100
H    0.90631900   0.02049800  -2.44030600
H    0.36180000   0.85051500  -0.94393500
H    0.84670700  -0.87859700  -0.93419900
H    3.25198400  -0.22071500  -1.46697100
H    2.15801600   2.30955600  -0.00718900
H    4.90519600   1.25078400  -0.52707900
H    3.91157700   3.69365900   0.88496600
H    7.15909800   3.79343900   2.09612400
H    5.81395200   4.92246300   1.69046500
H    7.21856500   4.69142000   0.58475200