19

C    1.68233400   0.04007900   1.34529300
C    2.11414500   0.25430300  -0.10484700
C    3.34714900   1.05662200  -0.27459500
C    3.57752000   2.01901000  -1.37412000
C    3.12655700   2.92310100  -0.29318400
O    4.00752400   3.57180400   0.39108500
C    3.61516700   4.36227700   1.52805600
H    0.82158400  -0.63957000   1.38763900
H    1.38355700   0.98780700   1.81755200
H    2.49164300  -0.40389600   1.94270500
H    1.29758200   0.65994300  -0.72354300
H    2.36442300  -0.72653900  -0.56241200
H    4.19368900   0.85847400   0.39381000
H    2.87560800   1.94827600  -2.21341700
H    4.62283700   2.17785800  -1.66079100
H    2.06038100   3.12711800  -0.12246200
H    4.31476000   5.20269700   1.57439900
H    3.71319800   3.74015900   2.42750900
H    2.58419100   4.72183500   1.40816000