14

C    0.26275400  -0.55884700   0.02337700
C    1.72364400  -0.24799900   0.14719700
O    1.91070900   1.17591100  -0.31350700
N    3.02951800   1.70838500  -0.07855600
C    3.39000300   2.73819100   0.55823300
C    4.82569000   3.24273600   0.46000300
O    5.13618700   4.19340700   1.10389100
H    0.12310200  -1.60657100   0.32749900
H   -0.08270100  -0.45758600  -1.01386400
H   -0.34702800   0.07151500   0.68360800
H    2.36284500  -0.83647200  -0.52664900
H    2.11649600  -0.27809100   1.17424900
H    2.67906500   3.27029700   1.21275600
H    5.49903500   2.67852800  -0.21963900