8

C   -0.07261300   0.91294200  -0.03871500
C   -0.79968100  -0.44631200  -0.03810100
N    0.59813100  -0.31987100   0.07411000
H   -0.05794700   1.39227200  -1.02805600
H    0.00177500   1.58667800   0.82328500
H   -1.19063600  -0.72526800  -1.02709400
H   -1.31847900  -0.88154300   0.82440800
H    1.26393200  -0.67569800   0.77307200