14

C    1.09248900  -0.00061300   0.11206800
N    2.49282100  -0.03864500  -0.22866500
O    3.08043700   1.05018800  -0.59198100
C    4.50392100   0.80037400  -0.89664100
C    4.71944400  -0.68394600  -0.65299000
C    3.37832400  -1.20361000  -0.21598600
O    2.97339800  -2.26821300   0.09743900
H    0.80768100  -1.02349300   0.38748300
H    0.51733300   0.34615500  -0.75934000
H    0.94407300   0.68912300   0.95625700
H    4.63315800   1.12691900  -1.93621200
H    5.05906500   1.46945900  -0.22719800
H    5.03622100  -1.23252100  -1.55249500
H    5.45557800  -0.89439700   0.13708200