15

O    2.82143700  -0.84946500  -0.92981800
C    2.15892900  -0.07488000   0.02711600
C    2.90462100   1.26424800   0.10404600
C    4.36356200   1.08637100   0.17922900
C    5.21487300   1.84968100   0.92853500
C    6.60102700   1.56384700   0.85178900
O    7.51143700   2.13966800   1.44561000
H    2.34151300  -1.66805000  -1.08785200
H    2.15969800  -0.55105100   1.02519400
H    1.10944900   0.13322900  -0.24183900
H    2.51344200   1.91758900   0.89631600
H    2.74826200   1.78488100  -0.86433300
H    4.75458500   0.27243700  -0.44677100
H    4.88792300   2.66587000   1.57734500
H    6.97432900   0.73596900   0.19724000