17

C   -0.86819600   0.05722800  -1.15652600
C   -0.64290100   1.07232100   0.00538800
C   -1.17959800   0.07911600   1.00969200
C   -0.50630500  -1.07790200  -0.22839000
O    0.75643500  -1.17468700   0.14433800
C    1.60309400  -0.03734600  -0.11049900
C    0.85615200   1.27888800   0.20113200
H   -1.91891800  -0.00714700  -1.46239100
H   -0.22283100   0.17433500  -2.04117500
H   -1.20840300   2.01435400  -0.06834900
H   -0.69686200  -0.08845800   1.98012000
H   -2.25852300  -0.11880900   0.99734400
H   -1.03023900  -2.04099000  -0.15815000
H    1.88737200  -0.09117500  -1.17289400
H    2.49765100  -0.19587200   0.49987000
H    1.23266900   2.05676800  -0.47762800
H    1.06581300   1.60737400   1.22905800