19

C    1.52269500   0.84867300  -1.41854700
N    2.13853900   2.00314000  -0.82932100
C    2.68680200   2.06110500   0.50058300
C    4.11254700   1.61267100   0.25606300
C    5.12883200   2.48435700   0.10023700
C    6.57018800   2.11836700  -0.10227100
N    7.10303100   2.89894500  -1.19105100
H    2.16354900   0.42635700  -2.21111900
H    0.57496500   1.15605900  -1.89251600
H    1.32457000   0.09182600  -0.65085200
H    2.36594600   2.78240500  -1.45123400
H    2.13181600   1.38802300   1.16661300
H    2.63382100   3.08997600   0.88028700
H    4.27257900   0.53349700   0.15977200
H    4.93855500   3.56490000   0.12741100
H    6.67594800   1.02091400  -0.20176000
H    7.09720000   2.39208900   0.82808900
H    6.94865300   2.46437100  -2.09570600
H    8.09411200   3.09294200  -1.09070500