14

C    0.95334300   0.01143100  -0.15670400
C    2.45895600  -0.00307400   0.10202600
N    2.89858400  -1.19522500   0.83984100
C    3.53104800  -0.85510900   1.94147800
O    4.03113500  -1.66137600   2.78340000
C    3.59559900   0.60557300   2.07292000
C    2.96581200   1.08720800   0.98644000
H    0.66353000  -0.84779800  -0.77652500
H    0.68705200   0.92492000  -0.70495400
H    0.39031100  -0.01452100   0.78631500
H    3.00800400   0.02645900  -0.85742800
H    2.73319100  -2.15405000   0.54243100
H    4.07263600   1.12301800   2.90254000
H    2.82669600   2.14588500   0.75882600