13

O    1.07020700   0.62680400  -0.50669200
C    1.85679200   1.08979800   0.22526400
C    3.38844100   1.00393700   0.09867300
C    3.83018500  -0.07639700  -0.91170400
C    4.24838900  -1.17522800  -0.03445700
O    4.35583700  -0.87149000   1.17135000
C    4.04181000   0.55876400   1.40994900
H    3.72667200   2.01102100  -0.18602000
H    4.70515400   0.20952700  -1.52910800
H    3.04684600  -0.39227700  -1.62235700
H    4.48640000  -2.21184000  -0.30962700
H    5.00852200   1.02931000   1.63110000
H    3.39670800   0.58655900   2.29677900