18

C    1.38959400  -0.12738700   0.42477500
N    2.07824800   0.40169900  -0.71202500
C    2.81960300   1.60038700  -0.71232400
C    4.28876700   1.37089400  -0.09607900
C    5.06483600   0.30759900  -0.87156300
C    4.94264900   2.66763100  -0.08822600
C    5.48666300   3.74746900  -0.10337400
H    1.93296800  -1.01384000   0.80449700
H    0.38790500  -0.47333200   0.11965100
H    1.31079300   0.63020800   1.21288200
H    2.14011000  -0.19900500  -1.53837600
H    2.31540300   2.34976100  -0.08530700
H    2.94241200   1.96347500  -1.74181400
H    4.12779500   1.04495600   0.94559500
H    5.17309000   0.58507600  -1.93041600
H    4.57821300  -0.67737600  -0.80250100
H    6.07339300   0.21039200  -0.44802500
H    5.98362600   4.70282500  -0.10487700