18

C    0.56449700   0.99116200  -0.32833300
C   -0.50911900   0.05920700   0.14153500
C    0.88893300  -0.45741700  -0.07078400
C    1.79162100  -0.81709700   1.09668800
C    1.67541200  -0.09528800   2.46484000
C    1.26560300  -1.45291400   3.06924700
N    1.40289600  -2.04346600   1.76882400
H    0.56620200   1.31810200  -1.36988600
H    0.93783200   1.74147800   0.37360800
H   -1.27244600  -0.26501700  -0.56843300
H   -0.88218400   0.18629700   1.16218300
H    1.06486000  -1.08453800  -0.94996200
H    2.83127100  -0.91853000   0.72581900
H    0.89556000   0.67369300   2.51637200
H    2.61695600   0.31629400   2.84526000
H    1.93918800  -1.92132300   3.81173300
H    0.23468100  -1.55309300   3.46011300
H    1.19632200  -2.98430800   1.41424800