15

C    1.06901800  -0.19182800  -0.34505000
C    2.42071100   0.00867700  -0.25554200
C    3.01264800   1.28626300  -0.19205500
C    4.39841100   1.50437700  -0.09990700
O    4.73249500   2.74040600  -0.05363400
C    3.55282200   3.60097100  -0.11109700
C    2.35937200   2.64098400  -0.20556700
H    0.65523100  -1.20152500  -0.39179000
H    0.36069700   0.64066000  -0.37282400
H    3.08679700  -0.85909300  -0.23116100
H    5.20630100   0.76780500  -0.06373800
H    3.69155600   4.24869600  -0.98562000
H    3.57877900   4.21338400   0.79876500
H    1.77636400   2.79329700  -1.12749400
H    1.66534300   2.75721700   0.64171400