17

O    1.68176800  -0.04713700  -1.18490600
C    2.09838100   0.15900500   0.12600500
C    3.33068500   1.05324800   0.05243700
C    3.06186900   2.36393000  -0.74822900
C    2.85345500   3.27426200   0.41711800
O    3.46094700   4.40501200   0.59400300
C    3.70822700   1.71939500   1.33751200
H    0.96299500  -0.68604700  -1.21468100
H    2.37745400  -0.77702400   0.64405300
H    1.31558500   0.64943700   0.74350700
H    4.17281200   0.50462000  -0.39924500
H    2.17023900   2.26368900  -1.39072600
H    3.92259900   2.67178400  -1.35933900
H    1.92098100   3.21720800   0.99541100
H    4.18091200   4.56109200  -0.04006300
H    4.73351000   2.08499900   1.46348600
H    3.15130400   1.54936400   2.26695600