15

O    1.06426200   2.58673900   0.64209800
N    2.35863700   2.42836100   0.54745100
C    2.88802500   1.53164900  -0.34206800
N    2.15336600   0.81480900  -1.13300700
C    4.39309700   1.42399300  -0.29202900
C    5.07059200   2.67423700   0.20838500
C    5.59304600   2.80483300   1.43163900
H    0.85835600   3.27063500   1.30442000
H    3.00859600   2.98950600   1.12832200
H    1.14545700   0.98454000  -1.03368000
H    4.71702400   1.16160700  -1.30935100
H    4.63320700   0.55711000   0.34696500
H    5.13611500   3.50894000  -0.49980200
H    5.58637900   1.98154000   2.15427100
H    6.08793000   3.72929100   1.73912600