19

C    2.62196900  -1.33882700  -0.55318900
N    2.36528600   0.06498500  -0.82124800
C    3.25267900   1.04240500  -0.67299000
C    2.89070500   2.47851300  -0.73303000
C    2.97297000   2.60653700   0.74137100
N    3.99698400   3.18120600   1.36263700
C    4.23199000   3.13578400   2.79482500
H    2.25386600  -1.95237300  -1.38595500
H    2.12361200  -1.65928700   0.37413000
H    3.70214800  -1.50005900  -0.45013800
H    1.42196700   0.31231900  -1.10759200
H    4.29194900   0.75712800  -0.49200700
H    1.88540700   2.66567100  -1.13618500
H    3.62288800   3.09530400  -1.27306900
H    2.16574200   2.20839800   1.36111800
H    4.69356200   3.66000800   0.79825200
H    3.32822900   2.77700500   3.30267000
H    4.46774300   4.14121800   3.16757200
H    5.06746100   2.46093400   3.03471800