16

C    1.44754700  -0.66904800  -0.52499300
C    2.82002500  -0.32590200   0.01006800
C    3.19455500   1.17983700  -0.03591000
O    2.36556700   2.02424500  -0.12110700
C    4.70566800   1.52766200   0.03493400
C    5.02564800   2.94293600   0.46198600
H    1.31964700  -1.75739000  -0.43067700
H    1.34604100  -0.41256800  -1.58806300
H    0.64733400  -0.17948200   0.04492500
H    3.64650800  -0.83286100  -0.51239100
H    2.93113700  -0.53745200   1.09092700
H    5.02192100   1.30398500  -1.00204100
H    5.13808400   0.75219400   0.68662800
H    4.61472500   3.68718800  -0.23231400
H    6.12066900   3.04609800   0.46707800
H    4.66624300   3.15585600   1.47771200