9

C    0.88444600   0.04813700  -0.00255000
C    2.09613000   0.07753400  -0.00053300
C    3.49888800   0.08979500   0.00184600
C    4.37181500   1.17503800   0.00163700
N    5.63656900   0.68788100   0.00455800
N    5.84584300  -0.49183300   0.00677100
S    4.42210800  -1.38838100   0.00576200
H   -0.19527500   0.02650000  -0.00432700
H    4.15197400   2.24071800  -0.00041500