19

C    2.87980400  -0.62721200  -1.88755100
C    1.88227700   0.02480500  -0.92055900
C    2.55598800   0.89910600   0.06444000
N    2.26149500   2.13029700   0.26259600
C    2.92594000   3.05731100   1.25437600
C    3.92256000   2.41777500   2.12603100
N    5.15141500   2.05473000   1.61626100
H    2.34197400  -1.30851400  -2.55893000
H    3.63881500  -1.21330600  -1.34989200
H    3.39004600   0.12499300  -2.50501500
H    1.38063000  -0.76315200  -0.32994400
H    1.09640400   0.57614500  -1.45943100
H    3.37786500   0.50153200   0.67532900
H    1.51978300   2.54552400  -0.30757300
H    3.35421900   3.86419500   0.63449400
H    2.10627300   3.49049400   1.84420900
H    3.63061100   1.99727100   3.08882000
H    5.56643100   2.65408500   0.90758100
H    5.83758900   1.71862100   2.28399600