11

C    1.13454400  -0.00152600   0.00936200
C    2.59982400   0.04874300   0.00236900
N    3.29113600  -1.05980500  -0.00455000
C    4.51109400  -1.35222400  -0.01211900
O    5.55634000  -1.79146000  -0.01911200
N    4.53669100   1.42334600  -0.00305200
C    3.28573300   1.37986800   0.00332800
H    0.75378300  -1.02821100   0.00813200
H    0.75579200   0.55791200  -0.86609300
H    0.76404400   0.55294100   0.89144300
H    2.66532800   2.29368600   0.00968100