17

C    1.16963700   0.09556300   0.76858000
C    2.27381100   0.01572300  -0.25216800
C    2.56490100  -1.36492000  -0.85768600
C    2.80648800  -1.08580200  -2.34200800
C    4.05071600  -0.36560600  -2.70404700
C    2.15429100   0.23603600  -2.52697900
O    1.89468100   0.84049400  -1.43752100
H    0.99890000   1.13296200   1.08399700
H    1.46716300  -0.48623400   1.65277100
H    0.23348200  -0.32420800   0.37426100
H    3.18433800   0.51065400   0.11885600
H    1.69333700  -2.02658900  -0.75294500
H    3.42255300  -1.85022700  -0.37427900
H    2.51258300  -1.85961900  -3.06318600
H    4.66340100   0.12449200  -1.94174900
H    4.37774800  -0.30948400  -3.74564400
H    1.87265400   0.72922900  -3.46305800