13

O    1.65699200   0.05967600   1.32769600
C    2.39483900  -0.02548300   0.40656900
N    2.95457800  -1.10786800  -0.22535200
C    3.86938200  -0.75842600  -1.25648600
C    5.18035100  -0.22538300  -0.81209600
C    3.78029000   0.73225900  -1.30424000
N    2.95296900   1.10955200  -0.32098900
H    2.82965300  -2.04910000   0.13394700
H    3.82068000  -1.31372300  -2.20197300
H    5.40123300  -0.13699800   0.25569900
H    5.99570700  -0.09447400  -1.52874300
H    4.05282500   1.39640500  -2.12701100
H    2.68779300   2.06807100  -0.09161700