19

C    3.21034900  -1.12830200   0.04238800
O    4.03400800   0.03176800  -0.02642000
C    3.45613200   1.21711800   0.11808400
C    4.41021200   2.36081200   0.33854500
C    3.95506300   3.59009400  -0.44252700
C    4.98777200   4.64871000  -0.71312600
O    3.45004400   3.03247500  -1.76006200
H    3.87129100  -1.99132900  -0.08515700
H    2.45926500  -1.11269700  -0.76178900
H    2.71215500  -1.18262400   1.02194100
H    2.45430900   1.23835800   0.57682000
H    3.18888800   2.07210600  -1.47214600
H    5.41107800   2.04242900   0.00508100
H    4.49420500   2.63340600   1.40474200
H    3.03576700   4.01940400  -0.02238000
H    5.87908600   4.23123500  -1.20726100
H    5.31249300   5.06512000   0.25113400
H    4.57759100   5.47312900  -1.31186300
H    4.14902300   2.98087200  -2.43783400