16

C    1.03476300   0.09323100  -0.00328300
C    2.47724000  -0.03965000  -0.06743700
C    3.68599500  -0.17820100  -0.12941700
C    5.08970000  -0.29844600  -0.17027500
O    5.64936600  -0.53627100  -1.35429200
C    5.62971200   1.65676600   0.25646200
N    6.94924000   1.80148400   0.14327900
H    0.75380100   1.15084400   0.11499700
H    0.63438700  -0.46949200   0.85238000
H    0.57607300  -0.28593200  -0.92781100
H    5.58293800  -0.72832200   0.71346700
H    6.55055500  -0.87030400  -1.25795700
H    5.20898200   1.67683700   1.26569000
H    5.02158800   2.06918700  -0.55227000
H    7.57148200   1.68261400   0.93683700
H    7.37853100   2.04528900  -0.74408000