13

C    0.98017800   0.07542700  -0.00352900
C    2.44593900   0.02281400   0.00392400
N    3.20343600   1.12519700   0.02184600
N    4.42656300   0.68406100   0.02007500
O    5.37986100   1.56806200   0.03588100
C    4.56784800  -0.71765600   0.00134200
C    3.30000100  -1.17956800  -0.00955900
H    0.61994900   1.10937500   0.03279300
H    0.58088800  -0.49706000   0.85134900
H    0.59614400  -0.42497200  -0.90994000
H    6.24436600   1.11799900   0.03292900
H    5.54581600  -1.19630700  -0.00166300
H    2.96834800  -2.21608200  -0.02479900