20

C    1.84107200  -0.43747500  -1.32661100
C    2.26506800   0.15847800   0.01024200
C    3.51578400   1.02724700  -0.09362200
C    3.30120400   2.39161000  -0.80212900
C    3.23168600   3.19900100   0.48071800
N    3.97268200   4.30769400   0.66507700
C    3.92705700   1.69435000   1.20337800
H    0.94367100  -1.05885600  -1.20520600
H    2.63386700  -1.07394800  -1.74695800
H    1.60269000   0.33925400  -2.06972700
H    2.46666100  -0.64902800   0.73224700
H    1.43852900   0.75321800   0.44014000
H    4.34600500   0.45779100  -0.53929900
H    2.37768200   2.46440400  -1.39664100
H    4.15496600   2.69417200  -1.42462200
H    2.26372600   3.23715400   0.99857000
H    4.76852300   4.51917200   0.06587300
H    3.82169900   4.92325200   1.46156400
H    4.99439800   1.88938000   1.35712800
H    3.38131500   1.48765700   2.13277000