15

C    3.09012600   0.31854500  -2.84150600
C    3.64530800   0.88559600  -1.60683400
N    4.75483200   1.57893900  -1.61811100
N    5.14816400   2.14106800  -0.50644400
C    6.38533500   2.83698700  -0.48521600
C    6.34788700   4.10155900  -1.42199000
O    6.92343400   5.09078100  -1.13268200
H    2.04939800   0.66275400  -2.96916700
H    3.02593200  -0.77920300  -2.73840100
H    3.69174200   0.57990900  -3.71945200
H    3.12128000   0.70094800  -0.65170500
H    4.51568100   2.21053900   0.30301900
H    7.17868100   2.19646300  -0.90842800
H    6.63897700   3.14424600   0.53609300
H    5.77187400   3.94412800  -2.36677800