15

C    0.88323300  -0.17431600  -0.14231400
N    2.05057500   0.28397300   0.52161200
C    2.73021600   1.40827400   0.35460000
N    2.16592900   2.58852400   0.43066900
C    4.22054600   1.27341900   0.16881900
C    5.05409500   2.54103000   0.27739800
O    4.59523100   3.64155200   0.43072500
H    1.17066300  -1.04570000  -0.76512900
H    0.43397100   0.58197000  -0.80850800
H    0.16367200  -0.55991300   0.59550100
H    1.16768300   2.69623100   0.58997100
H    2.79557500   3.40614000   0.45783400
H    4.40964200   0.82644200  -0.82465300
H    4.59594000   0.52850000   0.88948600
H    6.15011300   2.37590500   0.19610900