16

C    0.07371000  -0.05200700  -0.05881300
C    1.45818500  -0.26852100   0.36790500
C    2.57895900   0.12262500  -0.35498300
C    3.92765700  -0.12704600   0.13226600
O    4.90028200   0.32724600  -0.71085400
N    6.16169100   0.05399500  -0.18240700
C    7.07416200   0.47211200  -0.95809100
H   -0.45331100  -1.02433100  -0.09302700
H   -0.01716300   0.45901600  -1.02451400
H   -0.46388400   0.51681700   0.72337100
H    1.61606600  -0.77698200   1.32896900
H    2.45807600   0.63311600  -1.31834800
H    4.04712300  -1.22191100   0.35280900
H    4.03689600   0.30444300   1.16351400
H    8.10153600   0.30221600  -0.62700100
H    6.86627600   0.97698100  -1.90980700