17

O    2.97434000  -0.70773500  -1.24695400
C    2.42147200   0.15278400  -0.31040900
C    3.56391900   0.90311900   0.27790900
O    4.71416100   0.58333200  -0.13388200
C    1.61664900   3.32002300  -0.11526100
C    3.00536400   3.31794600   0.40371200
C    3.40887800   2.02485800   1.20597000
H    2.35665500  -1.37177900  -1.57119400
H    1.88140000  -0.34740600   0.51673300
H    1.72835200   0.91749800  -0.73063200
H    4.61053500  -0.15167700  -0.79722800
H    0.77697600   3.17226600   0.57088700
H    1.39561500   3.68081700  -1.12192200
H    3.74215000   3.50027300  -0.39247500
H    3.13785100   4.13569100   1.13584600
H    4.35997100   2.19294300   1.72807300
H    2.61737500   1.79918500   1.93632600