13

O    1.06046900  -0.00014500  -0.15065100
C    2.20823700  -0.12620400  -0.08037100
C    3.24786300  -1.23265900   0.02474000
C    4.50219400  -0.35225600  -0.04345300
C    4.23791700   0.67127500  -1.16393100
C    3.38551800   1.24445700  -0.03306200
O    4.16525600   0.69963200   0.92131900
H    3.13249900  -1.96462200  -0.78877800
H    3.10974300  -1.73921900   0.99441400
H    5.47108100  -0.83063000   0.13847400
H    3.78188500   0.35025200  -2.11007400
H    5.09756200   1.33373900  -1.34167800
H    2.89652800   2.21048000   0.13756100