10

C    0.94399000  -0.04190700   0.02584700
N    2.24179200   0.32617300  -0.43774000
C    3.02685000   1.42166200   0.02946100
H    0.97351400  -1.08670700   0.38916500
H    0.24026400  -0.03339000  -0.82827100
H    0.60293100   0.63499800   0.81625500
H    2.65036500  -0.25344900  -1.17993000
H    2.50080300   1.97487400   0.81463500
H    3.26654700   2.08378500  -0.82415700
H    3.99566500   1.03782800   0.40207400