17

O    1.06445000  -0.08653200   0.11440000
C    2.34103400  -0.30547100   0.01353300
C    2.91273900  -0.57025800  -1.32049000
C    3.24462800   0.86609500  -1.16613000
C    4.53674600   1.38133400  -0.64815100
C    4.34092500   2.36329100   0.48622400
C    4.79781100   2.15855200   1.72053000
H    0.78537200   0.14589200   1.01450600
H    2.95400700  -0.35476200   0.92201100
H    2.15274500  -0.80282000  -2.07542900
H    3.77480600  -1.24796500  -1.30941700
H    2.49038100   1.58960200  -1.49839300
H    5.02026700   1.89665600  -1.50311200
H    5.20497900   0.55689700  -0.35636000
H    3.79618200   3.28267100   0.24490100
H    5.36904000   1.26326600   1.98764100
H    4.64791400   2.90207600   2.50671800