10

N    1.00903800   0.07336000  -0.21511100
C    2.17628400   0.02913800  -0.07637100
C    3.55353000  -0.02196500   0.06146600
C    4.44026300  -0.71013100  -1.15082600
C    4.48673000   0.70831900  -1.08936200
H    3.96742200  -0.07960000   1.07427700
H    3.80056800  -1.20908900  -1.88572600
H    5.22083100  -1.31288100  -0.67282100
H    5.30384900   1.21517800  -0.56352600
H    3.88323200   1.30956100  -1.77677800