13

C    1.03969800  -0.06833600  -0.17752900
C    2.40364800   0.01267000   0.08576900
N    3.19922500  -1.05384300   0.32788200
C    4.51983000  -0.62396400   0.55495800
N    5.55069300  -1.32974500   0.81494700
C    4.49016400   0.83774600   0.43267400
C    3.22194100   1.21506100   0.15205000
H    0.51601900  -1.02701300  -0.20488900
H    0.46969100   0.84406900  -0.36276600
H    2.89217100  -2.02305100   0.34423800
H    5.37780200  -2.33935800   0.86102300
H    5.37736200   1.45583500   0.55888600
H    2.83763000   2.22164900  -0.00395700