17

C    0.99082400   0.04150600  -0.10893600
C    2.49360300   0.02009900   0.13277400
C    3.18760200   1.01458700   1.06559400
C    4.24511600  -0.08257600   1.36123900
C    3.18538900  -1.11464400   0.89078500
C    5.32950300   0.00507700   0.27998000
O    5.09669000   0.10113700  -0.88565100
H    0.68919700  -0.79929300  -0.74792100
H    0.69104500   0.97589500  -0.60216300
H    0.45746200  -0.03672400   0.85059100
H    2.98511900   0.10261800  -0.87858700
H    2.62142400   1.16677300   2.00089300
H    3.50486800   1.99951000   0.69290400
H    4.73315900  -0.16343500   2.33992700
H    3.50068400  -2.02624500   0.36238900
H    2.61873800  -1.41617600   1.78883100
H    6.39673700  -0.02367900   0.61517800