15

C    0.87773700  -0.04893300  -0.38522200
C    2.20162800   0.54016200  -0.02409700
N    3.41298400  -0.22770800  -0.19751300
C    3.29062200   0.83281500  -1.07010800
C    4.17917400   2.11244200  -0.76078000
N    4.75860900   2.12469200   0.43388700
O    4.23918500   2.94502700  -1.62441900
H    0.15588800   0.76337700  -0.55737600
H    0.49296800  -0.65476200   0.44964100
H    0.93313800  -0.67344900  -1.28731300
H    2.22067800   1.21750300   0.83825600
H    3.45524600  -1.20191600  -0.50586300
H    3.16852600   0.67684900  -2.14655300
H    4.74745700   1.29352600   1.01849400
H    5.33634100   2.91785900   0.69925900