18

C    0.77467500   0.81574800   0.48282100
C    2.25337700   0.72478000   0.57117100
C    3.11866300   1.11517400  -0.39530800
C    4.54301900   0.98476600  -0.24938600
O    5.26321100   1.07838000  -1.36351100
C    5.01578100   2.73929300   0.74933100
N    6.34156200   2.90670900   0.75331700
H    0.37937800   1.40787700   1.32425500
H    0.33002000  -0.18774800   0.58184200
H    0.43753400   1.26311800  -0.46100000
H    2.66152900   0.28556100   1.49179800
H    2.76114000   1.55504000  -1.33233000
H    4.92782100   0.32753000   0.54413100
H    6.16779600   0.76849200  -1.23547900
H    4.54408100   2.48090400   1.70111500
H    4.44776500   3.38077900   0.07174200
H    6.92214600   2.56666100   1.51291500
H    6.81195600   3.40161500   0.00251500