12

N    0.81924700   0.22298200  -0.01061900
C    2.10682300  -0.01419800  -0.07235500
C    3.10514000   0.94137400   0.13230900
C    4.44293400   0.54867500   0.03872900
O    5.03627400  -0.47433500  -0.15029200
C    5.52053800   1.87670000   0.22016200
O    5.12277500   2.84583100   0.72761100
H    0.14225100  -0.52006000  -0.15344000
H    0.45166500   1.14973400   0.18830100
H    2.39119500  -1.04846500  -0.29481300
H    2.88410100   1.98735400   0.35012500
H    6.53111300   1.63941500  -0.17557700