13

N    1.32785300  -0.43453700   0.72427400
C    2.46168200  -0.22687000   0.09596700
C    3.07567500   1.14567500  -0.11458100
C    4.46017200   0.84135200  -0.69127300
C    4.53846100  -0.66239700  -0.83914200
O    5.37703600  -1.37507800  -1.26016200
N    3.27225400  -1.17672300  -0.31225900
H    0.42231800  -0.07305600   0.40438200
H    3.09546200   1.68588300   0.84330300
H    2.42316300   1.71425500  -0.79611800
H    4.62947000   1.30240200  -1.67493400
H    5.27989300   1.16915200  -0.03527700
H    3.07404500  -2.17801900  -0.26721700