13

C    0.93806100  -0.05999400  -0.03235300
C    2.41596000   0.06542000   0.01612500
C    3.25574500   1.17771200  -0.14545100
C    4.58173500   0.70505800   0.00427300
N    5.77319200   1.20668200  -0.02948600
O    4.51329800  -0.65331300   0.24768500
N    3.22532200  -0.96697400   0.24261800
H    0.48824800   0.58971000   0.73207700
H    0.60905800  -1.09244900   0.13962100
H    0.57257700   0.27180900  -1.01477100
H    2.95436900   2.20352900  -0.34623000
H    5.76125300   2.21415700  -0.21298700
H    3.01866800  -1.95269900   0.41174900