14

C    0.97806600   0.04193300   0.15904700
C    2.48261400  -0.03793700  -0.09341800
C    2.98492200  -1.24721900  -0.89690800
C    3.63578000  -0.61060900  -2.06623600
N    3.57301800   0.71123400  -2.04548100
N    2.94621100   1.05153800  -0.96200200
H    0.70994100   0.97799600   0.66804500
H    0.68711700  -0.79003600   0.81441700
H    0.41337500  -0.03421200  -0.78087600
H    3.02399700   0.07034100   0.86345100
H    2.17196500  -1.92040300  -1.22401000
H    3.69895100  -1.88508000  -0.34768900
H    4.13286600  -1.10982100  -2.90121200
H    2.80073400   2.05001700  -0.78382400