13

C    0.84974100  -0.14738100  -0.04975200
C    2.31825900  -0.05217000   0.04166000
C    3.07527300   1.07510800   0.05041900
C    2.64632600   2.48912900  -0.02841300
O    3.46873000   3.37254900  -0.00753400
C    4.55863800   1.09651100   0.14579900
O    5.33105100   0.21021900   0.22803400
H    0.59359700  -0.77243600  -0.92244500
H    0.32485800   0.81163100  -0.11807500
H    0.48060700  -0.70909800   0.82556900
H    2.85913400  -1.00469800   0.11129400
H    1.56635300   2.72874900  -0.10673600
H    4.86439000   2.22649200   0.12512900