14

O    1.91472100  -0.13832200  -1.29425200
C    2.33486500  -0.02198500   0.02830100
C    3.15749500   1.26927700   0.05378600
C    2.40357300   2.46840200  -0.49957300
O    2.43316000   3.14262200   0.74073000
C    3.19252200   2.09366700   1.33718900
H    1.59729600  -1.02883000  -1.47859600
H    2.95477800  -0.86884500   0.36862300
H    1.48142000   0.07399400   0.72906400
H    4.13852200   1.10708900  -0.41630000
H    1.34604200   2.32608400  -0.82698400
H    2.84805600   3.12345200  -1.28220900
H    4.16577000   2.52539700   1.65695700
H    2.68672500   1.75168200   2.26194400