17

C    0.90143200  -0.00004700  -0.46182000
C    2.23796900  -0.30625800   0.10827100
C    2.34867200  -1.50669100   0.96956900
C    3.29651600   0.53380500  -0.22695500
C    4.73186100   0.25184400   0.06817300
C    5.81940900   0.41461500  -0.92563300
O    4.85876400  -0.03212400   1.23831400
H    0.84973700   0.96175200  -0.98476200
H    0.15010500  -0.02872800   0.34627700
H    0.61486700  -0.80821900  -1.15752300
H    2.05627000  -1.20546800   1.99288900
H    3.36539600  -1.90944700   1.04755200
H    1.63724000  -2.28069300   0.65133400
H    3.09662500   1.52086000  -0.66243700
H    5.72843300   1.39963500  -1.40906700
H    5.68761900  -0.34865800  -1.70996500
H    6.80187200   0.30545500  -0.45137800