18

C    2.69474900  -0.97581200  -0.21504000
C    1.99772500   0.10914800   0.59712400
C    2.61584000   1.48091900   0.47558200
C    1.97730200   2.58595500   1.27882700
O    4.04951500   1.30285000   1.03218400
N    4.94265900   2.03733900   0.53764300
C    5.98118400   1.79922800  -0.13689100
H    2.14627100  -1.92329100  -0.13473600
H    3.71622100  -1.16333900   0.14990700
H    2.74446200  -0.71260600  -1.28283200
H    1.93656200  -0.16236400   1.66311900
H    0.95719000   0.23416900   0.25488500
H    2.78929000   1.76898800  -0.57395300
H    1.89543800   2.31155200   2.33929000
H    0.96322100   2.74165100   0.88277100
H    2.52685900   3.53190100   1.18100700
H    6.66011900   2.63486100  -0.33309900
H    6.17772100   0.78689200  -0.51958200