17

C    1.11612000  -0.73592600   0.52658200
C    2.40545700  -0.37420800  -0.23659700
C    2.62595200  -1.25460700  -1.47502600
O    1.70059600  -0.79825800  -2.42759200
N    2.28514500   0.98444700  -0.73869800
C    2.62841700   2.11404500  -0.11470600
N    3.18328000   2.02159100   1.06749100
H    0.96202200  -0.05112700   1.37083100
H    1.23263400  -1.75443000   0.92100900
H    0.24540900  -0.71280200  -0.14230600
H    3.26069600  -0.40934800   0.45206700
H    2.46246400  -2.30615900  -1.18868600
H    3.66704600  -1.14986300  -1.82854800
H    1.74338000  -1.31717300  -3.23703500
H    1.84231500   1.01291100  -1.67270700
H    2.41799800   3.04690600  -0.65674100
H    3.36739500   2.94499100   1.47550500