14

N    1.04350100   0.06694400  -0.21965900
S    2.61648700  -0.22783000  -0.18167400
O    2.95755000  -0.99381200   0.98630400
O    3.11919800  -0.41942900  -1.51657200
C    3.39920600   1.61982000   0.28247800
C    4.80045300   1.39663100   0.41364500
C    5.66745500   1.47193000  -0.66492600
H    0.59687000   0.29087600  -1.10654300
H    0.48483100  -0.09084100   0.61670400
H    2.85054400   1.82970800   1.20815700
H    3.06182700   2.18082600  -0.59854300
H    5.19303700   1.10421300   1.39346100
H    5.29737400   1.66215500  -1.67757600
H    6.74479000   1.34249500  -0.52938600