13

C    0.91368300  -0.21045500  -0.20805400
C    2.36801100   0.01043500   0.20713900
C    2.77499400   1.44173500   0.14484600
C    3.46437600   2.24379000   1.03422500
S    3.64689400   3.83650000   0.42089400
N    2.82208600   3.39861000  -0.97235200
N    2.48391400   2.24985000  -0.93495100
H    0.67460700  -1.28034700  -0.16111000
H    0.74117300   0.12414200  -1.24296300
H    0.21851100   0.32478500   0.45380300
H    3.04993200  -0.56134800  -0.44424200
H    2.55039700  -0.34143400   1.23273800
H    3.85787100   1.95472200   2.01115700