17

C    1.04346900  -0.12275900   0.11213800
C    2.53246800   0.08123700   0.03788000
C    3.12608300   1.27295500   0.78786300
C    4.47543500   0.75112000   1.29424300
C    4.24263500  -0.71995300   1.34697600
C    5.01267900  -1.71122500   1.99727000
O    3.21105200  -1.08365900   0.68720800
H    0.74202400  -1.04614200  -0.39918500
H    0.55277500   0.72196600  -0.39224700
H    0.69754300  -0.15198700   1.15495700
H    2.89082800   0.02575400  -1.00274700
H    2.47815600   1.54989700   1.63278200
H    3.22575900   2.14942400   0.13632800
H    5.29988000   0.93046300   0.57862500
H    4.80421600   1.15583600   2.26174700
H    4.71107600  -2.75956500   1.93168300
H    5.90314200  -1.43037000   2.56276500