11

O    1.93894600  -0.78618500  -0.79269700
C    1.99079700   0.00280300   0.08567400
C    3.05636900   1.16909600   0.04740800
C    2.64925100   2.53811800   0.51556600
N    2.97010800   3.35096100  -0.43572000
N    3.49237900   2.77495800  -1.43556800
C    3.60501200   1.49512300  -1.31201200
H    1.36181900  -0.01196600   1.00201100
H    3.86540600   0.77296400   0.70294800
H    2.18822200   2.85228800   1.45392300
H    4.00608100   0.82948500  -2.07840300