15

C   -0.45478700  -1.58355600  -0.29226900
C    0.78224900  -1.24804800   0.54048900
C    1.20454500   0.17305100   0.36543500
O    1.00881100   0.72527700  -0.86300800
C    0.09783600   1.28666400   0.05547000
C   -1.23279700   0.77854800   0.07680600
C   -1.51114700  -0.54960900  -0.22890400
H   -0.86680700  -2.56836900  -0.02696400
H   -0.19504100  -1.67233400  -1.37113000
H    1.63006700  -1.89083500   0.24954500
H    0.60725100  -1.44421600   1.61030900
H    2.01810500   0.58449300   0.97960600
H    0.31218400   2.31256300   0.36747500
H   -2.04090000   1.44624600   0.39210500
H   -2.55127800  -0.84259600  -0.40747600