14

N    2.52807500  -0.37594800  -1.20128000
C    2.59862000  -0.10693400   0.20980500
C    2.91583200   1.34028400   0.15298400
C    2.10454700   2.48163200   0.00178600
C    2.97393100   3.56554500  -0.11966700
C    4.25482500   3.03197800  -0.07023300
O    4.20991200   1.70100300   0.07709300
H    1.67184700  -0.20324100  -1.71897300
H    3.38186400  -0.45412900  -1.74576800
H    3.39051500  -0.68835500   0.69827500
H    1.64080700  -0.30775800   0.70344600
H    1.01587000   2.49566200   0.01387700
H    2.72176400   4.61875000  -0.22211100
H    5.24462500   3.48374400  -0.11119200