17

C    3.43675200  -1.06221400  -1.08602000
C    2.90784400  -0.14666400   0.00393700
O    3.48393400  -0.43049900   1.27156300
C    3.15313100   1.34243900  -0.21570100
C    4.66105800   1.65695600  -0.13130800
N    5.21328000   1.15080500   1.08031600
H    2.98212100  -0.81086300  -2.05426900
H    3.18162400  -2.11068000  -0.87032400
H    4.53080500  -0.99428200  -1.18966200
H    1.81302500  -0.27676500   0.09467200
H    3.66116300  -1.37674700   1.36121600
H    2.61697300   1.91681100   0.55516700
H    2.77497300   1.67466300  -1.19230500
H    4.77799200   2.75843600  -0.13642700
H    5.22644500   1.25002500  -0.97861000
H    4.84526300   1.44721000   1.98466000
H    6.04776100   0.56570600   1.09868300