15

C    1.02973000  -0.14702600   0.00868600
N    2.27274600   0.36082600  -0.48616400
C    2.93166900   1.53359200  -0.04500400
C    4.44346700   1.34984500   0.14077400
C    5.11587100   2.70368200  -0.04989700
O    4.52748900   3.63703100  -0.51500700
H    1.15036100  -1.20981600   0.28195700
H    0.27524300  -0.10897800  -0.79904100
H    0.68942300   0.43679300   0.87065000
H    2.69536600  -0.14095600  -1.27345700
H    2.43882900   1.91355100   0.85985100
H    2.81989800   2.33389900  -0.82314100
H    4.87887700   0.67245500  -0.61612900
H    4.69139200   0.91946800   1.12316100
H    6.18680000   2.76459700   0.24557000