12

C    1.03231200  -0.08958000   0.17112300
C    2.24386900   0.00099400   0.04751800
C    3.61790800   0.11608300  -0.09233500
N    4.35583000  -0.99146700  -0.29593200
O    5.59150000  -0.66960300  -0.39727900
C    5.84151200   0.76941700  -0.26631100
C    4.45431100   1.35257000  -0.04819900
H   -0.04012400  -0.17814800   0.28073000
H    6.34276100   1.06903600  -1.19708800
H    6.53974500   0.87363100   0.57568400
H    4.14037300   2.06063400  -0.83260500
H    4.33419300   1.86746800   0.91904400