19

C    0.63785300   1.57122600   0.16921300
N    1.88204300   1.00240900   0.60724900
C    3.14252600   1.50286800   0.46682600
C    4.15773100   0.74137200   1.32929900
N    3.68978200  -0.61203400   1.54123400
C    3.57551400   1.98119400  -1.00890800
C    3.38987700   2.95530700   0.06887200
H    0.27086000   2.29037700   0.92196300
H   -0.10691100   0.77462900   0.05707200
H    0.75370100   2.09960300  -0.78749000
H    1.93429800   0.08613300   1.10134700
H    4.21369900   1.25945700   2.29929900
H    5.15714800   0.81941700   0.87104700
H    3.91792700  -0.96352000   2.46692000
H    4.06005400  -1.26962500   0.85828900
H    2.81006400   1.86942500  -1.78040400
H    4.57897500   1.64603600  -1.28222300
H    4.27864600   3.38729800   0.53862700
H    2.51793200   3.61387900   0.04324500