19

C    0.94763300  -0.20881700   0.22027300
C    2.42002800   0.00200800  -0.12984100
C    2.89315400   1.35250500  -0.14810500
C    3.31065700   2.53072400  -0.17414300
C    3.80632200   3.87153800  -0.14281800
C    5.08285400   4.08481900  -0.97447700
C    2.71970000   4.94276700  -0.33797900
H    0.72256300  -1.28231700   0.19402800
H    0.29319900   0.29905100  -0.50060700
H    0.72322000   0.16642100   1.22761200
H    2.68751300  -0.42500700  -1.12189900
H    3.10462600  -0.55237100   0.54938800
H    4.11327800   3.91231800   0.94098900
H    4.83828500   4.05779000  -2.04597000
H    5.84478300   3.32338500  -0.76272700
H    5.49871200   5.07324400  -0.74052100
H    2.38625300   4.94869100  -1.38554600
H    3.14510100   5.92757700  -0.10594300
H    1.85166900   4.77233200   0.31213900