15

N    1.68905400  -0.94211100  -0.22108900
C    2.97141300  -0.33055200  -0.26117600
C    2.93815200   1.09172900   0.12416400
C    3.92886100   2.01728800  -0.18931900
C    3.86740900   3.35253400   0.25675700
C    4.86482200   4.26212400  -0.02140900
H    1.71130300  -1.95358900  -0.15076900
H    1.06490100  -0.65719500  -0.96949400
H    3.54590800  -0.43821100  -1.21174000
H    3.64124600  -0.80860600   0.49002700
H    2.06911600   1.41418200   0.71248300
H    4.79029800   1.69689700  -0.78723700
H    2.99848400   3.67252100   0.84123700
H    5.74645900   3.97733400  -0.60366400
H    4.80264600   5.29434800   0.33196100