18

C    1.07668900  -0.00305000  -0.28614000
N    2.22229500   0.04715900   0.56817700
C    2.96234600  -1.07835300   1.13212200
C    4.00801500  -0.26395600   1.90410400
C    4.38418800   0.80366400   0.84900300
C    2.88858300   1.22817400   1.05329300
C    3.11424000   0.82124800   2.55065500
H    0.79638800  -1.04374400  -0.48405400
H    1.30389300   0.51649300  -1.23282300
H    0.23933300   0.53198500   0.19376400
H    3.36173000  -1.70979600   0.31980800
H    2.29106300  -1.69489600   1.75449400
H    4.75547700  -0.83133500   2.46779600
H    4.68746300   0.48477100  -0.15856000
H    5.06129700   1.57725900   1.23069500
H    2.44424400   2.16911400   0.71196100
H    3.68051900   1.59636900   3.08087600
H    2.23157900   0.51879100   3.13227900