20

C    1.25338400   0.61588800   0.33218000
N    1.96408600   0.88104900  -0.87998700
C    2.92313700   1.91313100  -1.05227300
C    4.33303300   1.41404600  -0.58314800
C    5.38126100   2.51685500  -0.79203200
C    6.71789700   2.05353900  -0.28913200
C    7.75447300   1.76036900  -1.07581200
H    1.54224000  -0.37690700   0.72244400
H    0.17133100   0.57009300   0.11499300
H    1.45839200   1.39444400   1.07553300
H    1.85493100   0.20335400  -1.64026400
H    2.63063800   2.78520700  -0.44851400
H    2.97365700   2.18549900  -2.11638600
H    4.60970400   0.51542000  -1.15527600
H    4.27049000   1.13107900   0.47957600
H    5.06587100   3.42609900  -0.25340000
H    5.44322500   2.77316400  -1.86139600
H    6.81905700   1.95035700   0.79757500
H    7.69644100   1.85521100  -2.16474300
H    8.70857000   1.43264100  -0.65715200