12

O    0.95207500   0.05082900  -0.11833400
C    2.31692600   0.01848500  -0.02874000
C    2.91709600  -1.20836100  -0.62890900
C    4.01400700  -0.84859300  -1.42738500
N    4.11351000   0.47121900  -1.52111000
C    3.05079200   1.14884300  -0.79188200
O    2.86363500   2.31193400  -0.82383500
H    0.57576400   0.67535500   0.51362300
H    2.70566200   0.07809400   1.01669300
H    2.54950700  -2.22422500  -0.47529000
H    4.71786600  -1.51539300  -1.93095600
H    4.83346800   0.97776500  -2.04258100