12

O    1.10184200  -0.37939600  -0.28487600
C    2.36156200  -0.39658000  -0.11409700
C    3.09270200   1.81574400  -0.06441400
C    2.35347800   2.30346300   1.00888100
C    1.69226900   2.72691200   1.94644600
C    4.47318900   1.51327300   0.07667000
N    5.58015000   1.17860400   0.17819400
H    0.58190400  -0.37358500   0.53889900
H    2.95642700  -0.53651900  -1.02299000
H    2.80041600  -0.57924500   0.87535000
H    2.71807800   1.98900300  -1.08284700
H    1.12527100   3.12546200   2.77491000