13

O    0.90608000   0.17416600   0.04706200
C    2.08993900   0.06082000  -0.00645300
C    2.96648400   1.29855900  -0.10009700
C    4.36481900   1.39909000  -0.17212500
C    4.72133700   2.82721300  -0.24818400
C    3.36233300   3.52945900  -0.21117600
O    2.39134400   2.45055200  -0.11961800
H    2.63600400  -0.90683800   0.00631600
H    5.05849700   0.55568200  -0.17103800
H    5.39092700   3.11124600   0.58627500
H    5.30608900   3.03932700  -1.16382900
H    3.10522400   4.09570700  -1.11722100
H    3.19175600   4.16913700   0.66596900