17

C    2.01836500  -0.42043600  -0.67791700
C    1.96147900   0.31675700   0.65581900
N    2.39841700   1.71229900   0.54867400
N    3.66020900   1.99856100   0.36903400
C    4.58675900   2.26585900   1.19379500
C    5.98614500   2.44582100   0.73360400
O    6.06654400   2.19234100  -0.61798200
H    1.67219000  -1.45164300  -0.52659000
H    3.04595500  -0.44939900  -1.06650300
H    1.36593800   0.05166700  -1.42572900
H    2.60508100  -0.15911300   1.41045600
H    0.93791400   0.35969700   1.05402800
H    1.75619000   2.39061400   0.12715500
H    4.35444500   2.38135000   2.26490400
H    6.60565500   1.77362000   1.36573300
H    6.27252100   3.47851400   1.02876900
H    6.96094900   2.35485400  -0.93394200