20

C    2.28351800  -1.33713400  -0.47008300
C    1.98149800   0.07290300   0.02108200
C    3.24506000   0.85019100   0.40462800
C    4.00628300   0.37267600   1.61798800
C    3.95110800   1.57501400  -0.74668300
N    3.18342600   2.26609300   0.22390800
C    3.33584000   3.44551900   1.00974900
H    1.34804900  -1.83003000  -0.76658000
H    2.74758600  -1.95859700   0.30830000
H    2.94713100  -1.32677500  -1.34756200
H    1.33551900   0.04922500   0.91323400
H    1.43598200   0.63832400  -0.74973000
H    4.90525600   0.97511700   1.80713500
H    4.32222600  -0.66579900   1.44780100
H    3.36522100   0.38916400   2.51107000
H    3.49101900   1.45494900  -1.73609800
H    5.02616000   1.79418400  -0.74859600
H    2.60836500   3.44387200   1.83065600
H    3.21628700   4.32784100   0.36496500
H    4.36192300   3.46649500   1.42633400