19

C    4.29728300  -1.31930400   0.83643600
C    3.25720100  -0.68677000  -0.16200200
N    1.98184100  -0.83163800   0.41970600
C    3.47534100   0.83440900  -0.37799800
O    2.86462200   1.46212800   0.70295100
C    4.92564100   1.32433700  -0.49913000
N    4.88064400   2.76366300  -0.31087500
H    5.26690700  -1.34292200   0.32218300
H    4.01396800  -2.34681200   1.09662700
H    4.35312200  -0.70177000   1.74190100
H    3.30105100  -1.27021800  -1.09575600
H    1.67000500  -0.04291900   1.00975400
H    1.42047100  -1.68141400   0.33679200
H    2.94191900   1.07939600  -1.32000800
H    3.33087500   2.32734900   0.76924100
H    5.36676800   0.98702800  -1.45382100
H    5.53077500   0.90038800   0.31437100
H    4.67591200   3.26580900  -1.17262900
H    5.75053700   3.13353500   0.06159700