17

C    0.88261600   0.07575900   0.01995600
C    2.39008200   0.00089200   0.00578700
C    3.17124200   1.36253000  -0.02156400
O    2.50652600   2.36587000  -0.02984800
C    4.63275600   1.30294800  -0.03473300
C    5.40705100   2.39413500  -0.79124000
C    5.42019700   2.41296100   0.68024800
H    0.50234000  -0.95597800   0.03856200
H    0.48413100   0.56439400  -0.87875900
H    0.50223800   0.59001600   0.91219800
H    2.79797000  -0.50731600  -0.88575900
H    2.81610200  -0.48178100   0.90301500
H    5.02272600   0.28374900  -0.02496600
H    4.81717500   3.14466500  -1.32271000
H    6.27816300   2.02050200  -1.33372500
H    6.30077100   2.05291500   1.21660800
H    4.83955000   3.17683300   1.20280100