16

C    2.08729000  -0.48053600  -1.31524500
C    2.50493200   0.13764700   0.00316700
C    3.38702700   1.43965500  -0.27131700
C    2.67011100   2.70612100  -0.72055300
C    3.02562200   3.20257500   0.67718700
O    3.77035600   2.00448000   0.94161300
H    1.45500700  -1.35297400  -1.08636400
H    2.94706300  -0.83633700  -1.89939600
H    1.49054900   0.20492800  -1.93321500
H    3.12582200  -0.53571300   0.61017300
H    1.64682400   0.47386200   0.60457200
H    4.28036600   1.05207100  -0.80319400
H    1.60171800   2.60929400  -0.95255100
H    3.17532000   3.24237800  -1.53631300
H    3.70280500   4.06893800   0.79480000
H    2.22125200   3.30294400   1.43051700