15

C    2.43280100  -0.70996000  -1.38716300
N    2.46570400   0.16020700  -0.24569500
C    3.13686100   1.38069800  -0.17339700
C    2.12837600   2.64777600  -0.15286900
O    2.35916200   2.86317700   1.20383200
C    3.42817500   1.93109400   1.24464200
H    1.40545200  -0.75123400  -1.79068000
H    2.69908600  -1.73241500  -1.07002700
H    3.12800300  -0.35768700  -2.15711100
H    1.86816200  -0.09322300   0.54789000
H    3.92203400   1.44032000  -0.93691800
H    1.08004300   2.43050300  -0.40832400
H    2.54655800   3.42137600  -0.82076200
H    4.41788500   2.41139900   1.30325100
H    3.32140300   1.19936400   2.06062300