12

C    0.93074100  -0.09871400  -0.00971100
N    2.36546700   0.09000800  -0.07574100
N    2.87256900   1.23519000  -0.29206500
C    4.20491200   1.33233300  -0.33984900
C    4.78666100   2.56721600  -0.57376300
C    5.33341900   3.64141700  -0.77972000
H    0.62901600  -0.82051100  -0.78337500
H    0.44816500   0.87053300  -0.17261800
H    0.66852600  -0.50466900   0.97874200
H    2.96992500  -0.73552200   0.05814200
H    4.85187000   0.45080100  -0.19708700
H    5.81016600   4.59346500  -0.96178400