20

C    0.88997400   0.07056400   0.16305200
C    2.39592600  -0.11970600   0.09945300
N    3.21199400   0.85788700   0.77201200
C    4.08556700  -0.08427800   1.40925500
C    3.17503700  -1.23731600   0.89146700
C    2.35431100  -1.87991300   2.00562900
C    3.86457800  -2.26921800   0.01308900
H    0.41530800  -0.79370800  -0.32115800
H    0.58208100   0.97313600  -0.38335200
H    0.53158600   0.13266600   1.19831100
H    2.71067400  -0.12214800  -0.96870400
H    3.12371900   1.87639400   0.86236300
H    5.11182000  -0.03132800   0.99448800
H    4.16342600   0.08231100   2.49957700
H    1.88731200  -1.13765800   2.66978300
H    2.99976800  -2.52300000   2.62108100
H    1.55939700  -2.51122300   1.58361700
H    4.46695700  -1.79960400  -0.77935800
H    3.12061400  -2.92358300  -0.46455000
H    4.52895900  -2.90582900   0.61523100