14

C    0.96895100  -0.08317200   0.40167700
C    2.36809700   0.10401800  -0.21709900
C    2.68007100  -0.71083100  -1.39434100
C    3.60574900  -0.37773100  -2.37305000
C    2.88696000   1.45035400  -0.16493100
C    3.30133300   2.58681200  -0.07737500
H    0.94452800   0.34849300   1.40909600
H    0.70408000  -1.14720500   0.45824500
H    0.23254800   0.44130000  -0.22360800
H    3.06451400  -0.50252800   0.46295300
H    2.18275400  -1.68676000  -1.44461700
H    4.22069000   0.52450300  -2.28486000
H    3.72754600  -1.00744100  -3.25902600
H    3.66339700   3.59970700   0.00354800