18

C    2.54033400  -0.98037600  -0.36853800
C    2.18715800   0.37147500   0.21658000
N    3.08657500   1.41338700  -0.16827200
C    3.82476100   1.90519500  -1.27256400
C    3.22197100   2.84191400  -0.24049800
C    4.07489000   3.53981100   0.76110300
C    3.71096500   4.69592300   1.31222200
H    1.79216400  -1.71516600  -0.04387600
H    3.52395000  -1.32103100  -0.01760600
H    2.53669800  -0.95827500  -1.46742000
H    2.15363100   0.38114900   1.32097100
H    1.17902500   0.72046200  -0.09851700
H    3.36850900   1.76346000  -2.26082300
H    4.91063200   1.74014600  -1.23142800
H    2.27846700   3.34524300  -0.49401900
H    5.03200500   3.06771100   1.00430400
H    2.76268600   5.18454300   1.07115900
H    4.36434600   5.20258800   2.02528100