16

C    1.14694300   0.10793400  -0.45607500
N    2.53256700   0.44570300  -0.52581800
C    3.27975700   1.06505200   0.52186600
C    4.76817800   1.03847500   0.29805400
C    5.41148500   1.98913100  -0.66035200
N    5.43515200   2.23198700   0.76315900
H    1.04251400  -0.99166300  -0.52815200
H    0.61990800   0.53464500  -1.32648200
H    0.70977800   0.46419100   0.48365000
H    3.02951000   0.25824800  -1.40445900
H    2.97301300   0.60976500   1.48289100
H    2.94038300   2.12535400   0.59444400
H    5.24472300   0.06181800   0.44511900
H    4.79997000   2.68394000  -1.24774500
H    6.32021700   1.64579200  -1.16444500
H    6.33889200   2.03980200   1.19126500