15

C    1.83403900  -0.10363800  -0.12669900
C    3.24059700  -0.48338200   0.31318300
C    4.22011700   0.64274500   0.18955500
O    4.06341500   1.77352800  -0.11239400
C    5.75644400   0.26307600   0.56699200
N    6.42100500  -0.43150800  -0.32954100
N    6.15696000   0.65237300   1.71076200
H    1.16666400  -0.96310600   0.01625700
H    1.80974600   0.17942500  -1.18749400
H    1.44764500   0.73734600   0.46419400
H    3.63733900  -1.35148000  -0.24186000
H    3.28594100  -0.78605000   1.37663400
H    5.97324700  -0.78825800  -1.16764900
H    7.42338700  -0.58029700  -0.22860500
H    5.91843900   1.54337600   2.15072300