13

C    1.01963500   0.10342300  -0.09926700
C    2.49926300  -0.05619600   0.16764300
O    3.22582900   1.11332400  -0.35815400
C    3.70544600   1.11398100  -1.55263100
N    3.68136800   0.01409200  -2.27098100
N    3.57482300  -1.08652700  -1.64486800
C    3.14175500  -1.27626600  -0.46391800
H    0.66327000   1.04500000   0.34033500
H    0.47569500  -0.72546200   0.37631200
H    0.79882100   0.09565000  -1.17653700
H    2.72733000  -0.04978600   1.24283600
H    4.09757600   2.05899900  -1.94143800
H    3.25870700  -2.24305200   0.03370000