18

C    1.05537300   0.36044600  -0.33252100
C    2.55752900   0.18487600  -0.41043800
N    3.29232100   1.21346700   0.27361400
C    4.70737200   1.25171200   0.39140600
C    5.29971400   2.59870000  -0.04284600
C    6.69925500   2.72631600   0.54611500
O    7.10877500   1.96680800   1.37515000
H    0.56827600  -0.45970100  -0.87532400
H    0.73473100   1.30358300  -0.79810200
H    0.70019200   0.32771500   0.70747900
H    2.92794500   0.17149400  -1.45580600
H    2.89380400  -0.78230300   0.01585100
H    2.75841300   1.96080700   0.72986100
H    5.14050300   0.41090300  -0.16713500
H    4.98675500   1.10592700   1.46027100
H    4.71254300   3.45334400   0.33879000
H    5.32948800   2.70264300  -1.13869500
H    7.30516500   3.58137400   0.17000100