15

C    0.95969400   0.70397800  -0.55616400
C    2.15147700   0.05151000   0.08117000
C    2.22174500  -0.01322100   1.58533500
O    3.47538700  -0.51217800   1.92578700
C    2.76333000  -1.20860500  -0.83413700
N    3.39448400  -0.00034600  -0.57193400
H    1.02112400   0.70678800  -1.65101600
H    0.92734100   1.74975200  -0.21092700
H    0.03327000   0.20784400  -0.23739800
H    1.38283400  -0.65146900   1.92541900
H    2.03840500   1.00495200   1.98070000
H    3.58708800  -0.56720800   2.88061300
H    2.11216100  -1.28845200  -1.71033700
H    3.20976500  -2.12355500  -0.43176500
H    4.20666300  -0.04568000   0.06036400