18

C    0.93772900  -0.14950300  -0.15005900
C    2.38442900   0.10932300   0.23882800
C    2.96023900   1.45057700   0.04801400
C    2.14987200   2.57191900  -0.27390600
C    4.41980200   1.63924300   0.16298800
C    5.03176000   1.63900900  -1.26814600
H    0.69325300  -1.20299700   0.03591100
H    0.76422500   0.04551600  -1.21813100
H    0.23357800   0.45288700   0.44180600
H    3.08237300  -0.61355000  -0.22740100
H    2.55367200  -0.09009700   1.32330100
H    1.05899700   2.50027800  -0.29067700
H    2.60663800   3.54069900  -0.49926300
H    4.87058200   0.83045500   0.75446800
H    4.64823300   2.60605900   0.63980300
H    4.84467100   0.68460700  -1.77864300
H    6.11657400   1.77647800  -1.16726100
H    4.64006600   2.45786900  -1.88766200