13

O    5.07334300  -1.83337800   0.86271000
C    5.28181400  -0.69647100   1.15440900
C    5.25943300   0.35752500   0.06534500
N    5.47913100   1.56907900   0.36112400
N    5.51117900   2.63188600  -0.39246600
C    6.45172400   3.73896100  -0.28243000
C    4.98784100   3.94770500  -0.05028500
H    5.49677200  -0.33271900   2.18295300
H    5.04996300   0.03779900  -0.96787400
H    6.87965800   4.05330200  -1.23958900
H    7.13629400   3.69050800   0.56966100
H    4.60811200   4.05101800   0.97058500
H    4.39251700   4.40795700  -0.84517400