18

C    1.76060400  -0.08002400  -1.40524000
C    2.48599900  -0.07620100  -0.08197700
C    2.15544900  -0.98261500   0.90820300
C    3.54362300   0.82012800   0.15611300
C    4.01140400   1.87038000  -0.81606600
C    3.17393000   2.92712600  -0.22567400
N    3.61221100   3.83585800   0.59982700
H    2.44717400  -0.32900100  -2.22941900
H    1.30799900   0.89780000  -1.63411200
H    0.95257700  -0.82156600  -1.41134300
H    1.36717100  -1.72331800   0.75867500
H    2.68527100  -0.99630100   1.86381900
H    4.05430300   0.79139200   1.12310200
H    3.73028100   1.65518400  -1.85466600
H    5.08822800   2.07717000  -0.74750500
H    2.09828000   2.92766400  -0.43027100
H    4.60439200   3.93839100   0.80397500
H    2.97645300   4.46757500   1.08090200