15

N    0.82280400   0.03163300  -0.20327400
C    2.02895400  -0.20635800   0.21350900
C    3.04687900  -0.93765400  -0.56379800
C    3.81442500   0.26149000  -1.05947800
C    4.97083300   0.74130100  -0.44171500
C    5.66399000   1.84750800  -0.88213900
H    0.46607100  -0.37406600  -1.06754200
H    0.18906800   0.63702500   0.31514700
H    2.31526000   0.23966300   1.17243300
H    2.61468700  -1.54014200  -1.37583600
H    3.65774800  -1.57493700   0.09051300
H    3.40536000   0.78783000  -1.92805800
H    5.36314400   0.19215100   0.42251100
H    5.32157000   2.42549500  -1.74473900
H    6.58444800   2.16786000  -0.39113200