13

O    3.09289600  -0.83280600  -0.73789600
C    2.17775600   0.02579500  -0.16414100
C    2.81614100   1.35991600  -0.04056700
C    2.24373300   2.55207800   0.49560900
O    3.11535500   3.54836900   0.44076400
C    4.24553100   3.06072000  -0.11240600
C    4.10527700   1.70981200  -0.42601300
H    2.71723600  -1.71372400  -0.83670200
H    1.84669900  -0.28802200   0.84996400
H    1.24679400   0.14826500  -0.75982500
H    1.26288200   2.77132500   0.92054300
H    5.06848400   3.76663300  -0.22775000
H    4.84906200   1.05788300  -0.87969900