13

C    1.05425000  -0.04605400   0.11419800
C    2.50032600   0.08125500  -0.06550300
N    3.25815700  -1.00685300  -0.27501600
O    4.49476700  -0.65639200  -0.40623700
C    4.71040400   0.78144300  -0.29285300
C    3.31535800   1.32080400  -0.05161900
H    0.73307100  -1.09265400   0.06499400
H    0.53548900   0.54946600  -0.65801200
H    0.76196000   0.40098300   1.08062800
H    5.18916000   1.08663200  -1.23510000
H    5.42712300   0.91168800   0.53145500
H    2.96171300   2.02156100  -0.82857200
H    3.19559700   1.84810900   0.91138800