18

C    1.00473200   0.04663000   0.20067300
N    2.41382000   0.15544400  -0.00443600
C    3.13802600   1.39694500  -0.07315300
C    4.61013000   1.14346700  -0.24259200
C    5.23836300   1.47715100  -1.37973400
C    5.29199700   0.48176500   0.87642500
C    4.72960000   0.15686900   2.05201200
H    0.80718000  -0.69660900   0.99175000
H    0.53057100  -0.33644600  -0.72259900
H    0.57750900   1.02050800   0.46595400
H    2.94618700  -0.70282300  -0.18552000
H    2.89853800   1.97921500   0.83953300
H    2.71415100   1.98563000  -0.91198600
H    4.71757900   1.95523300  -2.21306900
H    6.30892700   1.29574800  -1.50201300
H    6.34436800   0.23329400   0.70824900
H    3.69923700   0.41029700   2.31954600
H    5.30642000  -0.35915200   2.82207900