15

C    0.97168500  -0.08335700   2.34776600
C    1.77487500  -0.17357900   1.21921600
C    2.66631600   0.81766300   0.81382800
C    3.58613300   0.63428500  -0.33810300
O    3.39436200   1.63284900  -1.44272100
C    2.29708900   2.11501600  -1.81733300
O    1.15609200   1.90674200  -1.30420900
H    0.29886500  -0.89722800   2.62290000
H    1.00222200   0.79583700   2.99702300
H    1.71025400  -1.09027800   0.61902600
H    2.79764800   1.71567000   1.42874000
H    1.19859200   1.36444700  -0.47637900
H    3.48140700  -0.34112000  -0.83319900
H    4.63939300   0.80286600  -0.08325700
H    2.32882500   2.78902500  -2.68455800