15

C    0.89842100  -0.14660000   0.04373800
O    2.31520400  -0.02989100   0.00210100
C    2.81135600   1.22928300  -0.06919100
C    4.24148600   1.30981800  -0.10835500
C    5.46713100   1.43605000  -0.14436200
C    6.90391900   1.53733500  -0.18411000
O    7.33785200   2.83443300  -0.25519600
H    0.67901100  -1.21728800   0.09847800
H    0.44690700   0.27827200  -0.86734100
H    0.49310700   0.36087700   0.93404100
H    2.47863400   1.88883000   0.77832600
H    2.43645300   1.80691800  -0.95805800
H    7.22536100   0.89385700  -1.04107200
H    7.26817600   0.97565200   0.71230600
H    8.30193900   2.86053800  -0.28016500