14

C    0.96904700  -0.03681800  -0.84165100
C    2.18145100   0.12243700  -0.18680200
C    2.82537600  -0.98291400   0.41001100
C    3.39544000  -1.91621600   0.94221900
C    2.79097000   1.43744500  -0.08192700
C    3.32829500   1.83889100   1.35107900
N    4.18779800   1.53482800   0.28145600
H    0.45006500   0.82256500  -1.27468600
H    0.51892600  -1.02623800  -0.95085900
H    3.89721900  -2.75322000   1.40346000
H    2.34441300   2.23489600  -0.68332500
H    3.17116800   1.05394100   2.10056500
H    3.19959500   2.87344900   1.68691300
H    4.64673300   2.34921300  -0.13032600