17

N    1.11187200   0.05166300   0.42421600
C    2.43892800   0.09733700   0.30862500
C    3.32625500  -0.79844900  -1.35953500
N    2.54792700  -1.38940700  -2.25665400
C    3.12740800   0.59898900  -0.90533500
C    4.41875300   1.37996600  -0.69510400
O    5.03918500   1.42348500  -1.93994500
H    0.49906000   0.52125600  -0.23263900
H    0.67193400  -0.40413000   1.21531800
H    3.02854200  -0.26877100   1.15290400
H    4.14597300  -1.38574400  -0.93768000
H    1.89791800  -0.86245300  -2.82982100
H    2.65106000  -2.37513400  -2.47025300
H    2.45192100   1.15257300  -1.57738100
H    5.03355200   0.86645300   0.07154500
H    4.16354000   2.37905800  -0.29647400
H    5.84745300   1.94264700  -1.89082200