18

C    1.01120500   0.03217600   0.16680500
C    2.33611100  -0.02694100   0.01050200
C    3.14323500  -1.29674300  -0.01950900
C    4.09220900  -1.28977100  -1.22012300
C    5.02863500  -0.09098300  -1.16901200
N    4.35173300   1.13633600  -0.84816200
C    3.12229000   1.24787800  -0.13103300
H    0.46881700   0.98143800   0.18327800
H    0.42054500  -0.87798300   0.29370100
H    2.47498000  -2.16629100  -0.06276400
H    3.72673800  -1.39210600   0.91433100
H    4.70682200  -2.19944600  -1.24860900
H    3.51469800  -1.26167000  -2.15690600
H    5.80460800  -0.22716600  -0.38238800
H    5.59027900   0.07040800  -2.10396500
H    4.84817500   2.00965200  -1.04299000
H    3.41039800   1.63113500   0.88060200
H    2.53824000   2.07707800  -0.57105300