15

C    1.35130400   0.12320800   0.58548900
C    2.70627200  -0.10149400  -0.03040900
C    3.45484700   0.96920100  -0.82224200
C    4.04745900   0.35460600   0.46573900
C    4.91544800  -0.78130400   0.17827000
N    4.27022400  -1.77055100  -0.42840400
N    3.02360700  -1.40260400  -0.53682900
H    1.28159000   1.15627100   0.94863000
H    1.19327100  -0.55530300   1.43470900
H    0.55570700  -0.02681400  -0.15804000
H    3.07361600   1.98838900  -0.72991800
H    3.89968400   0.70943100  -1.78661100
H    4.20078200   1.01148600   1.32494300
H    5.98244500  -0.87875100   0.38670100
H    2.36664700  -2.03488000  -1.00115000