16

C    0.86524900   0.05034700   0.06188400
C    2.32866000   0.22561500  -0.03725800
C    3.15576600   1.03419700   0.92326400
C    4.22439000  -0.04004100   1.21688900
C    3.39483300  -1.24177300   0.87283700
O    3.77722000  -2.21749600   0.10719400
H    0.51092700  -0.82708500  -0.49659000
H    0.40642000   0.93684100  -0.42140600
H    0.50392900   0.02458800   1.09930000
H    2.76532200   0.09164800  -1.03731400
H    2.58601400   1.30435400   1.82258900
H    3.56965700   1.95056900   0.47605000
H    5.09497200   0.04492400   0.54867200
H    4.58013000  -0.06421000   2.25931300
H    2.58038900  -1.54374000   1.54475100
H    4.60493300  -2.03470500  -0.36689900