18

C    2.26378400  -0.93204900  -1.83918600
N    1.89650700   0.20835700  -1.00412800
C    2.68225000   1.15719800  -0.62340100
C    2.22056000   2.37180700   0.12546300
O    3.29132500   2.83362800   0.87814300
C    3.74894600   1.87676000   1.72272000
C    5.04980900   2.13781200   2.36934200
H    1.65703500  -0.92166500  -2.75443700
H    2.07260200  -1.86140100  -1.28672200
H    3.32645500  -0.86700300  -2.09908100
H    0.92473100   0.23614000  -0.68810100
H    3.72470500   1.13214600  -0.96204000
H    1.33072800   2.14215600   0.74711100
H    1.93481300   3.15654400  -0.59624100
H    2.98088200   1.25950700   2.21239200
H    5.79555100   2.48217200   1.63799700
H    5.41738700   1.23204500   2.86915400
H    4.95271800   2.92702900   3.13822400