13

N    1.03875900   0.01797300   0.05207300
C    2.36202100   0.03188500  -0.01475400
C    3.08094700   1.27347500  -0.04309000
C    4.45822200   1.21671200  -0.11205300
N    5.14309300   0.06111100  -0.15221300
C    4.48185700  -1.10862500  -0.12809700
C    3.10603700  -1.19432200  -0.06011700
H    0.49815500   0.88143700   0.08488600
H    0.51582400  -0.85667300   0.07289300
H    2.55154000   2.22821800  -0.01067000
H    5.05134600   2.13504800  -0.13593500
H    5.09353100  -2.01429200  -0.16456700
H    2.59615300  -2.15998700  -0.04094500