12

C    0.98746400   0.01858600  -0.19042000
C    2.33582200  -0.01484300   0.03136800
C    3.23910400  -1.21311000   0.10278100
N    4.51013700  -0.56409500   0.35700800
N    4.46100600   0.71829400   0.43324800
C    3.19047700   1.10000100   0.24705500
H    0.40699400  -0.89365000  -0.34657200
H    0.45584800   0.97273600  -0.21622500
H    3.28748200  -1.79314200  -0.83572700
H    2.99462000  -1.91030100   0.92349800
H    5.41065600  -1.03203000   0.47567900
H    2.93223700   2.15886400   0.27376700