15

C    0.96549200  -1.34537000   0.05500100
C   -0.50548000  -1.52254400   0.03741900
C   -1.51827000  -0.60082100   0.00394800
C   -1.41874600   0.81419000  -0.02425400
C   -0.28275200   1.61944600  -0.02449200
C    1.08539300   1.24480300   0.00341500
C    1.61975500  -0.01605600   0.03699800
H    1.39026800  -1.94484100  -0.78002200
H    1.36530600  -1.90915400   0.92646600
H   -0.81582300  -2.57300700   0.05458100
H   -2.53539000  -1.00104600  -0.00223800
H   -2.37280600   1.34885700  -0.04939500
H   -0.47134000   2.69672300  -0.04979900
H    1.79983900   2.07201200  -0.00312000
H    2.71372400  -0.07106100   0.05390100