17

C    1.80847400  -0.89285200   1.01707700
C    2.91506200  -0.32779800   0.10868200
C    2.96549800   1.13771400   0.08756300
C    4.13438800   1.89445700   0.15662600
C    4.16952600   3.33241400  -0.01833100
C    4.81475000   4.07593300   1.23728500
O    5.67663600   3.61154300   1.89257400
H    1.78159300  -1.98498300   0.91476000
H    0.81945600  -0.49963100   0.74221900
H    2.00548300  -0.65044200   2.07020100
H    2.67538400  -0.62459500  -0.93719900
H    3.90256600  -0.75749500   0.33337800
H    2.01173500   1.67449000  -0.01523700
H    5.07947700   1.38341800   0.37982800
H    3.20145000   3.78848100  -0.26376900
H    4.91783000   3.62300200  -0.78399700
H    4.37868900   5.09116400   1.38698700