17

C    4.74309400   1.67298000  -1.79615200
C    5.27979700   1.31616800  -0.43641000
O    5.35960000   2.56978900   0.32146300
N    5.79408000   2.57640500   1.54807800
C    6.21790800   1.36694100   2.22780800
C    5.81692000   3.85649000   2.15663800
N    5.45854600   4.93313600   1.60480200
H    4.67181600   0.75074800  -2.38927400
H    5.41398600   2.36619900  -2.32046300
H    3.73972100   2.11328700  -1.72599400
H    6.29399200   0.89219600  -0.48146800
H    4.61208800   0.63818600   0.11574500
H    5.38131700   0.65557200   2.28841800
H    6.53468400   1.64611400   3.23832600
H    7.06195400   0.90907800   1.69156700
H    6.18874300   3.81857600   3.18763900
H    5.13184100   4.82576000   0.63894400