18

C    0.85552700   1.09913900  -1.22558900
C    2.29885900   0.88555200  -1.21134800
C    3.17658800   1.44518500  -0.25733700
C    4.62708200   1.27632100  -0.20973700
C    5.28478900   0.54669200  -1.37562900
C    5.34872300   2.58190600   0.19719500
H    0.55359600   1.49629100  -2.21447500
H    0.48511100   1.74871700  -0.42384600
H    0.34933500   0.11346000  -1.18454300
H    2.73010000   0.25329300  -1.99673300
H    2.72212300   2.04351800   0.54416500
H    4.69655700   0.62791200   0.70874200
H    5.20783900   1.13516300  -2.30259300
H    4.85505000  -0.45027500  -1.54878300
H    6.35278400   0.40574700  -1.16497100
H    5.33396100   3.29219200  -0.64215000
H    6.39426800   2.35625300   0.44093100
H    4.88536400   3.05825600   1.07242600