19

C    1.01231000  -0.09375300  -0.05392800
C    2.54295900   0.06549100  -0.06428600
C    3.20640100  -0.77055400  -1.16344500
C    2.88503500   1.52667700  -0.20573900
C    2.74236600   2.23528300  -1.51364300
N    3.29041100   2.13956300   0.84012900
N    3.70778300   3.34704700   1.09324300
H    0.54252100   0.50906700   0.73612000
H    0.77020500  -1.14783700   0.13911900
H    0.56506100   0.17781500  -1.02158600
H    2.92785100  -0.25383300   0.91597600
H    2.80081600  -0.53500300  -2.15859000
H    3.00817700  -1.83365300  -0.97073500
H    4.29752700  -0.63439900  -1.18387500
H    1.80526600   1.93321100  -2.00059100
H    3.56704700   1.90754100  -2.16738900
H    2.77983100   3.32529600  -1.40444800
H    3.15025300   3.89505200   1.75239600
H    4.71926300   3.50033300   1.10426400