13

O    1.15586500   0.09190800  -0.67890600
C    2.25017600   0.04026900  -0.23462700
N    2.97460800   1.27294100   0.05468600
C    4.32187300   1.36595800   0.60069700
C    4.49532000   2.88820000   0.66791900
N    3.28990700   3.47455600   0.17456300
C    2.46640400   2.49568300  -0.15606800
H    2.83747900  -0.86653200   0.00719100
H    5.03456500   0.85961100  -0.07201500
H    4.36534300   0.86149400   1.58064100
H    5.34527600   3.27525100   0.07265600
H    4.68466100   3.27843200   1.68714800
H    1.46063500   2.63364100  -0.56482700