13

C    0.98258600   0.02398800   0.02764100
C    2.46278600  -0.02970200   0.01095800
C    3.25838300  -1.12870600  -0.08529500
C    4.60130500  -0.61261900  -0.05441200
O    5.65678400  -1.31088200  -0.11974000
O    4.67667100   0.66851900   0.04986700
C    3.32839400   1.18261600   0.10291000
H    0.53987100  -0.97525700  -0.05080900
H    0.62083900   0.64606800  -0.80658200
H    0.63555000   0.50093900   0.95816600
H    2.98934400  -2.17954900  -0.16881000
H    3.20370900   1.88004300  -0.73971500
H    3.21834400   1.73387300   1.04947000