14

N    2.77938100  -1.15070600  -0.25622900
C    2.24556700  -0.02737800   0.36760600
C    3.40245200   1.06533400   0.48942600
O    3.72688900   1.73241000  -0.65336900
C    3.00158600   2.48872600   0.32352100
C    3.70463800   3.54011500   0.99363600
C    4.27897900   4.43617700   1.56830900
H    2.91220500  -1.17219800  -1.26848400
H    3.20068500  -1.91336900   0.27497600
H    1.90402400  -0.25004800   1.38718900
H    1.44892400   0.42450500  -0.24049300
H    4.23022600   0.74089400   1.13410300
H    1.95403100   2.68156600   0.05948900
H    4.79187800   5.23733500   2.07486800