19

C    3.62622100  -0.82223900  -1.64123600
N    4.22523300   0.44167400  -2.07206200
C    3.71979800   1.62449800  -1.41552400
C    4.66935600   2.04297200  -0.31271900
N    5.81191500   1.26225300  -0.16444400
C    6.24456000   2.53550200  -0.55852700
C    6.72534600   3.56320600   0.41453100
H    4.10526300  -1.65248600  -2.17578600
H    2.53862700  -0.86572500  -1.82319400
H    3.79910300  -0.97555700  -0.56480700
H    4.19688400   0.53057300  -3.08321800
H    2.71454400   1.48565300  -0.97682200
H    3.62559600   2.47415200  -2.11330200
H    4.31105300   2.62991000   0.53995800
H    5.80767400   0.54065200  -0.92238000
H    6.63574600   2.59280200  -1.58272500
H    6.31165300   3.41814200   1.42036300
H    6.49650200   4.57428200   0.05212400
H    7.82258900   3.46874400   0.46926700