18

C    2.58355300  -0.88350000  -0.70849300
C    2.22550500   0.28262700   0.19047800
N    2.96616200   1.47163600  -0.10803000
C    3.34718700   2.25211100  -1.22434200
C    2.90924000   2.88166900   0.08314700
C    3.96498500   3.52080400   0.97032200
O    5.17594800   2.90022900   0.69263400
H    1.97148500  -1.75070600  -0.42866000
H    3.64013100  -1.16100000  -0.59400400
H    2.38321200  -0.65577500  -1.76491800
H    2.38761900   0.07393900   1.26188100
H    1.15381300   0.56523700   0.10603800
H    2.70266700   2.19172500  -2.10955100
H    4.43277700   2.29717400  -1.39744000
H    1.89372300   3.28328300   0.19629200
H    3.64062600   3.38357800   2.01881200
H    3.96313300   4.60414900   0.75394400
H    5.90327200   3.37583000   1.10662900