18

C    2.64874700  -0.75153400  -0.02975900
O    2.26196600   0.62702600  -0.15881800
C    3.08154100   1.62086000  -0.08370100
C    2.40621500   2.96902800  -0.06462300
N    2.58290200   3.39971700   1.29248000
C    4.47642900   1.46431200   0.07100500
C    5.46100800   2.55078400   0.21235600
H    1.71671500  -1.32068100  -0.08787900
H    3.13356100  -0.91520200   0.94215100
H    3.31173700  -1.03306700  -0.85903100
H    1.36213300   2.85343700  -0.39732100
H    2.90432600   3.65429500  -0.76440500
H    1.87557300   3.07419200   1.94330800
H    2.79798700   4.38134800   1.43095000
H    4.87586000   0.44565800   0.04055200
H    5.03646100   3.55786400   0.15308500
H    6.25625500   2.42869700  -0.54190900
H    5.96580200   2.44851500   1.19005000