13

O    1.00977000  -0.03625000  -0.64085500
C    2.11762200   0.01107900  -0.24443000
C    2.86877900   1.31031400   0.05062400
N    4.30199500   1.14480600  -0.01405100
C    4.91568400  -0.04052400  -0.03107600
N    4.26592300  -1.15485800  -0.14996600
C    2.90503300  -1.32225600   0.11127600
H    2.55806400   1.59749300   1.07188700
H    2.52950900   2.09239900  -0.64311700
H    4.86598000   1.97517900  -0.18638000
H    6.01185800  -0.05183100  -0.04036600
H    2.46348100  -2.14596500  -0.46430500
H    2.68954700  -1.46044600   1.19016800