10

O    1.30774200  -0.78588300  -0.32852000
C    2.30365000  -0.18167000   0.25118100
C    1.96508900   1.71380400   0.28085000
O    1.26236500   2.04489600  -0.58772900
C    2.68165100   2.26685900   1.34421000
C    3.32323600   2.68441200   2.28447300
H    1.37406400  -0.81773700  -1.29730000
H    3.26369300  -0.09503100  -0.28343300
H    2.33760500  -0.35135600   1.33476900
H    3.88729800   3.08435200   3.11655700