19

C    2.06394500   2.42580700   1.92573100
C    3.48594700   2.06308400   1.76189200
N    4.05361000   2.03302500   0.62339900
N    5.29570800   1.79508200   0.29556800
C    6.27755000   2.87907100   0.06222200
C    6.18043900   3.93809400   1.14838200
C    7.65174900   2.23169800  -0.05064200
H    1.53648500   1.59192300   2.41554600
H    1.58683700   2.66484100   0.96848400
H    1.99190600   3.28449400   2.61204100
H    4.08260500   1.79698500   2.65012900
H    5.43466800   0.91798600  -0.21648300
H    6.00282200   3.32404900  -0.91212300
H    6.40421300   3.51577100   2.13974900
H    5.19653100   4.42736300   1.16955300
H    6.92488300   4.71846000   0.94196800
H    7.95975400   1.77845500   0.90273200
H    8.38816400   3.00067600  -0.31776700
H    7.67941900   1.46512700  -0.83958700