21

C    2.06442200  -1.35127000  -0.06312300
C    1.82995400   0.17312700   0.02267900
C    3.12358400   0.88762100   0.19460300
C    3.93148300   0.70674000   1.43092800
C    3.16610400   0.65474900   2.75170400
C    3.72514000   1.61479800  -0.96724900
C    2.97177600   2.68147400  -0.29661100
H    1.10180800  -1.84485100  -0.24866100
H    2.47781500  -1.75179900   0.87240200
H    2.74419200  -1.60474200  -0.88870700
H    1.17188800   0.38484000   0.88171500
H    1.31821200   0.51622100  -0.88788100
H    4.74506700   1.44768500   1.46352200
H    4.44755400  -0.26364600   1.26212200
H    2.60711300   1.58590600   2.92477500
H    3.87405200   0.52954300   3.58090300
H    2.46099100  -0.18671600   2.78923400
H    3.32867800   1.30513600  -1.94126800
H    4.81603400   1.71322700  -0.91720800
H    3.44274500   3.31568600   0.45903300
H    1.94095500   2.90925400  -0.58037700