13

C    0.90678100   0.03536400   0.30658300
O    2.31937000   0.15890400   0.39210500
C    2.94197700   1.15897900  -0.28325300
C    4.36992100   1.17061100  -0.17544600
C    5.59073800   1.22436800  -0.11015100
C    7.04612300   1.38428000   0.10311800
O    7.37506900   2.13962500   0.96960700
H    0.69582700  -0.95961100  -0.11664500
H    0.46112900   0.83015200  -0.30726800
H    0.51970700   0.05957600   1.33680400
H    2.56298900   2.16336700   0.06155600
H    2.63813000   1.18193500  -1.36356300
H    7.73811300   0.80203600  -0.53705700