16

C    3.02781700  -1.21954500   0.02623700
O    3.92079000  -0.26995200   0.64579200
N    4.04047900   0.83750400   0.00017900
C    4.87165400   1.67395500   0.61096100
C    5.11353800   2.94195200   0.02730200
C    4.45787200   3.35575600  -1.25318600
C    5.99145900   3.76684300   0.71626700
H    3.02136500  -2.08304000   0.69717400
H    3.42458100  -1.48198800  -0.96296200
H    2.03202900  -0.76562100  -0.05665700
H    5.35013300   1.36518400   1.54998500
H    4.71794100   2.65778500  -2.06256100
H    4.76452000   4.36669800  -1.54596100
H    3.36296500   3.33260200  -1.15094000
H    6.46140400   3.44708700   1.65080400
H    6.23872700   4.76401100   0.34197600