16

C    0.81000000  -0.14399300   0.44833300
C    2.26105200  -0.05482900   0.32900600
C    3.02154400   1.02323300  -0.20100600
C    2.43240400   2.25682700  -0.72858400
C    4.50803700   0.84829300  -0.20215100
C    5.26292200   1.96821400  -0.75092000
N    5.83346200   2.86974900  -1.19068700
H    0.46847300  -1.06106400  -0.07148400
H    0.24893200   0.72258900   0.08556300
H    0.55442300  -0.34415700   1.50782700
H    2.83382500  -0.91950500   0.68988400
H    1.34078500   2.30130700  -0.68930100
H    2.78326600   2.40687600  -1.76890500
H    2.86927000   3.12242300  -0.19216600
H    4.75919000  -0.07764600  -0.75739500
H    4.84536800   0.64395900   0.83379600