18

C    1.24799900  -1.23874800  -1.38756400
C    2.44484200  -0.92541000  -0.49675000
C    3.09558000   0.41608100  -0.85893700
C    4.26816900   0.69065700   0.04372000
O    4.88418700   1.98510700  -0.40593100
N    5.67525800   2.54975400   0.39984400
C    5.65564800   3.66739600   0.98250100
H    0.80202400  -2.20326300  -1.11000300
H    1.54232800  -1.29752500  -2.44602200
H    0.46707600  -0.46924700  -1.29429000
H    3.19405900  -1.72997100  -0.58362200
H    2.12717400  -0.90764800   0.55931300
H    2.35798100   1.22886500  -0.76581900
H    3.44008300   0.39726000  -1.90488400
H    5.07839000  -0.04714700  -0.05431900
H    4.00606200   0.83182200   1.10330300
H    6.55827100   3.97048200   1.52320400
H    4.75348400   4.29686200   0.95604000