14

C    0.24420900  -0.35201500   0.34330000
C    1.71181100  -0.27391200   0.03187900
O    1.95519400   0.99530700  -0.69567300
C    3.07343500   1.39209700  -1.11479100
C    4.30616900   0.69323200  -0.96544800
C    5.47074500   1.25279800  -1.48103900
N    6.44504100   1.73131000  -1.91797400
H    0.05957600  -1.29148100   0.88307900
H   -0.35834300  -0.35920900  -0.57435100
H   -0.07208700   0.48056900   0.98514600
H    2.05278400  -1.07859200  -0.63624700
H    2.34093000  -0.23395000   0.93342100
H    3.04524000   2.36169500  -1.63154000
H    4.37268400  -0.27424200  -0.45685900