13

O    0.96216000   0.11189100   0.62846200
C    2.07470700   0.02031200   0.22290300
C    2.86941300   1.26560500  -0.23958300
N    4.24187600   1.12634700   0.18456700
N    4.92693900   0.02970000   0.10658100
C    4.30462000  -1.10921700  -0.06201400
C    2.83431900  -1.27995200   0.04645400
H    2.44340000   2.18935600   0.17034800
H    2.81898500   1.30440200  -1.34496200
H    4.74157800   1.91540600   0.60649000
H    4.95303000  -1.97153800  -0.24881000
H    2.47234100  -1.75307700  -0.88868700
H    2.57883500  -2.00394500   0.84021100