13

C    1.79258800  -0.59649000  -1.31334300
C    2.38437800  -0.24145400  -0.14383500
C    2.90591100   1.04121400   0.18307500
N    2.88863800   2.10261200  -0.62846700
C    3.36767800   3.34216300  -0.37203600
C    3.96973500   3.64293500   0.86136400
N    4.46268900   3.86291000   1.89033900
H    1.42662800  -1.61583400  -1.45642900
H    1.64618400   0.08302600  -2.15934000
H    2.48801500  -0.98765700   0.64746400
H    3.36227700   1.20524600   1.16444700
H    2.46987200   1.98593400  -1.55354000
H    3.27089300   4.09853900  -1.15342600