17

C    0.88764000  -0.02025300  -0.36504600
C    2.36422000   0.08990900  -0.40415700
C    3.11317400   1.12541900   0.06533000
C    2.55212200   2.39937200   0.64623100
C    4.56559600   1.01936100  -0.12577300
N    5.22398300  -0.09914500   0.10867800
N    5.21897100   2.03261300  -0.69586900
H    0.59767700  -0.98433400   0.08278900
H    0.50166200  -0.04342000  -1.39840400
H    0.39450900   0.79388400   0.17759800
H    2.88465600  -0.73667100  -0.90372500
H    1.71589500   2.16965800   1.32008300
H    2.16754900   3.07120700  -0.13658100
H    3.29689800   2.94552200   1.24192800
H    4.78162200  -0.86947300   0.59978000
H    6.20625500  -0.18032400  -0.14642500
H    4.91874100   2.97552900  -0.42705700