22

C    1.77381000  -0.87435000   0.30828500
C    3.23160800  -0.47787700   0.08223600
C    3.76150800  -1.03417900  -1.23944500
C    3.36596000   1.05355700   0.17334900
C    4.79249300   1.57372100   0.04396900
C    4.85411300   3.15895900   0.13164400
N    5.63689200   1.07523700   1.05474100
H    1.39378300  -0.50369400   1.27186300
H    1.66340800  -1.96783900   0.30070700
H    1.13025200  -0.46985500  -0.48900200
H    3.83045800  -0.91710000   0.90564800
H    3.22868700  -0.58881000  -2.09480900
H    3.60899100  -2.12139100  -1.28634700
H    4.83989500  -0.85962500  -1.38177900
H    2.93944000   1.41528200   1.12558200
H    2.77297900   1.52873700  -0.62423300
H    5.25973100   1.32795600  -0.92585800
H    4.41613800   3.50090200   1.07787500
H    4.25012600   3.51756400  -0.71260500
H    5.88247300   3.52677200   0.02813700
H    5.26473000   0.81249900   1.97322300
H    6.65485300   1.05238100   0.94780000