17

C    2.15463000  -0.50916000   1.40035100
C    2.86932700  -0.08219700   0.12368100
C    3.28896400   1.33507000   0.06595700
C    4.20587000   1.92537000  -0.79589600
C    4.26520500   3.35648600  -0.49825500
O    3.38288600   3.60630700   0.54486900
C    2.77036800   2.41811700   0.92638900
H    1.87733400  -1.56874200   1.33595200
H    1.22818600   0.06101600   1.56403400
H    2.80128800  -0.38876300   2.28244300
H    2.20763100  -0.23436400  -0.75462100
H    3.74652000  -0.71619700  -0.09006500
H    4.79072900   1.42291400  -1.56876800
H    5.29384600   3.69902900  -0.23223800
H    4.01232200   3.98621000  -1.38523300
H    1.66207700   2.51115400   0.86263500
H    2.95826700   2.21085300   2.00497300