17

O    1.01029200   0.05171900   0.05593000
C    2.34097700  -0.02834600   0.07586100
C    2.87317600  -1.32149500  -0.50771900
C    2.53250800  -1.50488300  -1.98240700
C    3.09899600  -0.34252600  -2.80330100
O    2.57621300   0.86576300  -2.24653400
C    2.99360200   1.19950200  -1.03986600
H    0.65743300   0.67187800   0.70956500
H    2.81517800   0.30676700   1.01438300
H    2.42072500  -2.13158800   0.08963900
H    3.96059400  -1.36008500  -0.34203300
H    2.96613000  -2.43879700  -2.36773600
H    1.44345200  -1.56379000  -2.12352000
H    4.20019400  -0.31148000  -2.76300000
H    2.76199600  -0.36710200  -3.84529500
H    4.07281400   1.07277600  -0.84454500
H    2.56227200   2.15193100  -0.70962500