17

C    0.98705400  -0.00745200  -0.04473000
C    2.51530700  -0.00348000   0.02572500
O    2.84649800  -0.01815000   1.36563400
C    3.07364100  -1.22634700  -0.79286000
C    3.27433200  -0.71213400  -2.14258000
C    3.33359500   0.69739600  -2.12569300
C    3.08881100   1.19929400  -0.77515300
H    0.63001400   0.00722600  -1.08581200
H    0.59631100   0.87273800   0.48315300
H    0.59710100  -0.90477600   0.45372800
H    3.79645800   0.04890400   1.50822800
H    2.50002300  -2.16588700  -0.74401000
H    4.07874900  -1.48827200  -0.38459000
H    3.35033300  -1.31835900  -3.05046200
H    3.55106700   1.31541200  -3.00200900
H    4.07553800   1.53508000  -0.37281000
H    2.48078200   2.12135800  -0.74427500