12

O    0.98843800  -0.10363100   0.23608900
C    2.31889800   0.02266200   0.18038200
C    2.84181000  -0.85612700  -1.21666500
C    4.27255900  -0.91214100  -1.26309700
N    5.43176700  -0.92710800  -1.26946900
C    2.90855600   1.31577400   0.12645900
C    3.46260900   2.40272700   0.05798400
H    0.51008600   0.71495100   0.02495400
H    2.80132000  -0.63875100   0.93236400
H    2.40362500  -0.30303700  -2.05857400
H    2.36866000  -1.83642000  -1.06954200
H    3.95208000   3.36708000   0.01368700