14

C    0.88345200  -0.13422500  -0.35699600
C    1.76336800   0.38029400   0.55332100
C    2.85679100   1.22047000   0.16090900
C    2.60313700   2.97839500   0.42494100
O    3.91063100   3.00334500   0.74978700
C    4.01865800   1.60125400   1.05830300
H    0.07872700  -0.80527700  -0.04567900
H    0.96549700   0.09346200  -1.42458300
H    1.62726900   0.16236900   1.61854500
H    3.11685600   1.20897400  -0.90807200
H    1.89014000   2.95248800   1.26610200
H    2.30621700   3.60610500  -0.42579400
H    5.00324000   1.23249900   0.73509900
H    3.87265400   1.40346900   2.13308300