16

N    1.14981300  -0.30717200   0.66996300
C    1.93267000   0.27716100  -0.29741100
C    3.19400900   1.13282400   0.33192100
O    3.75657300   1.96867100  -0.56007800
C    3.01470600   2.57877400   0.53519200
C    3.81290300   3.33854900   1.50699600
C    3.37761800   4.47961500   2.05031400
H    1.41397300  -1.18561900   1.11366300
H    0.33212000   0.16484300   1.05228400
H    1.37353900   1.00091000  -0.90386400
H    2.45440800  -0.47003400  -0.91540900
H    3.85166000   0.47172300   0.91419000
H    2.05932800   3.01519200   0.21850200
H    4.79157200   2.92464200   1.76933500
H    2.40958600   4.91390400   1.78337000
H    3.98024600   5.02178800   2.78154700