14

C    0.94427100  -0.12330100  -0.11361400
C    2.47450800   0.03296700   0.11215700
C    2.86953200   1.44627000   0.06175500
C    3.23771900   2.26955200   1.15811600
S    3.55354700   3.81035700   0.63274100
N    3.22985300   3.50353900  -1.01897400
C    2.89278200   2.27289600  -1.16390300
H    0.70607500  -1.19468000  -0.08994500
H    0.63144600   0.27698000  -1.08779900
H    0.37586500   0.38031800   0.67923900
H    2.99595200  -0.50293300  -0.70096800
H    2.76605400  -0.41790000   1.06979800
H    3.31756700   1.96476100   2.20452500
H    2.65101900   1.89105800  -2.16147900