13

C    0.86251300   0.03118600  -0.08691600
C    2.32029100   0.01534000  -0.21064100
C    3.18578700   0.94497000   0.36927200
C    4.57959600   0.86263400   0.20422300
C    5.43981000   1.78253000   0.77777100
H    0.52562200  -0.93598100   0.33125100
H    0.41511900   0.05874700  -1.09827800
H    0.47633000   0.85915900   0.51906900
H    2.76783800  -0.79120900  -0.80642900
H    2.76378000   1.75963300   0.96873200
H    4.99610700   0.04652000  -0.39582100
H    5.06073400   2.61133500   1.38375200
H    6.52167800   1.70661100   0.64130300