13

C    0.96043100  -0.00558500  -0.00806800
C    2.43873200   0.00981300  -0.00039600
C    3.31630200   1.12417500   0.00554500
N    4.57019700   0.66365800   0.01104600
C    4.59043300  -0.74771500   0.00906800
O    5.53186700  -1.47318100   0.01270300
N    3.22055500  -1.08180200   0.00189900
H    0.55982300   1.01442300  -0.00531300
H    0.57928100  -0.53990200   0.87657200
H    0.58870600  -0.53115200  -0.90197100
H    3.05945200   2.18236900   0.00585800
H    5.42585900   1.21663600   0.01612100
H    2.90735600  -2.05094600  -0.00097300