21

C    3.13477700  -1.25659000  -0.53277700
C    2.63828700  -0.15506600   0.39911700
C    3.34528000   1.18714000   0.18378800
C    2.70150400   2.33126300   1.04772700
C    4.77489300   1.23272500   0.55165900
C    5.29302500   0.49053500   1.71254700
C    5.65312700   2.04018500  -0.21456100
H    2.56991500  -2.18333500  -0.36498300
H    4.19957800  -1.49431900  -0.37918100
H    3.00327500  -0.97470600  -1.58800500
H    2.72115500  -0.46451100   1.45351400
H    1.56526800   0.01767600   0.22653500
H    3.23811200   1.49825700  -0.86914500
H    2.72821000   2.07515600   2.11571900
H    1.65431500   2.41492200   0.72481300
H    3.18341400   3.30723500   0.89786500
H    5.42846700  -0.56085000   1.38348800
H    4.55794800   0.44154600   2.52931900
H    6.26024800   0.85936200   2.07445100
H    5.26687200   2.69174200  -1.00489900
H    6.73376900   2.02033700  -0.04164400