16

C    0.88518300  -0.10757900  -0.13362200
C    2.40940600   0.06080600  -0.02138800
C    3.16302900  -0.75408000  -1.08559700
C    2.74420000   1.49957800  -0.19828200
N    3.31756800   2.19250300   0.69771800
N    3.70785600   3.43133400   0.78951900
H    0.34987800   0.46638400   0.63581100
H    0.63647700  -1.16881900   0.00374800
H    0.51739500   0.19790500  -1.12509600
H    2.74273100  -0.24325900   0.98238300
H    2.85931200  -0.46667600  -2.10380800
H    2.92198700  -1.81751100  -0.95152300
H    4.25257100  -0.64136500  -0.99505000
H    2.48784200   2.00111600  -1.14915400
H    4.71608900   3.60238700   0.74394200
H    3.15688000   4.04545200   1.39546000