18

C    1.24528500  -1.02006300  -0.16644000
N    1.95254600  -0.04561100  -0.95994100
C    2.29309200  -0.37755100  -2.31562100
C    2.67083600   0.98682300  -0.31882500
C    4.14392900   0.50978300   0.08847100
C    4.83186100   1.44269900   1.03837100
O    4.59173900  -0.49917000  -0.35772900
H    0.88749700  -0.57105000   0.76735200
H    1.94134700  -1.84904900   0.06996900
H    0.40385100  -1.43132300  -0.73980400
H    1.51462800  -1.00304500  -2.76825900
H    3.24678500  -0.94760200  -2.27970500
H    2.45656400   0.53321200  -2.90631300
H    2.15747300   1.32291900   0.59307500
H    2.81845400   1.84294200  -0.99643200
H    4.61250800   2.49338400   0.80260700
H    5.91185800   1.25414400   1.01194100
H    4.45882800   1.23897500   2.05533700