19

C    0.70008200   0.61404000  -0.67031400
C    2.15780800   0.65497600  -0.78773600
C    3.01997300   1.26124200   0.13440600
C    4.47361800   1.31881200  -0.00265100
C    4.99109800   2.77653100   0.04294300
C    4.30947900   3.55692800  -1.08958100
O    4.73230300   4.85589500  -1.19894900
H    0.24264200   1.02623700  -1.58933300
H    0.30819500   1.13047300   0.21406200
H    0.37193600  -0.44391200  -0.66482300
H    2.61327600   0.16923900  -1.66082500
H    2.57235500   1.71979500   1.02666100
H    4.82482500   0.79515100  -0.90346600
H    4.91257600   0.81271400   0.88355400
H    6.08366600   2.79305500  -0.07461000
H    4.75301600   3.23042300   1.01873400
H    3.19989800   3.47301800  -0.91218500
H    4.50709400   3.06956200  -2.05739200
H    4.56222400   5.34370600  -0.38434400