15

C    2.96781400  -1.08682400   0.14929500
C    2.28793000   0.09165400   0.01645200
C    2.89712000   1.38995100   0.04006000
C    2.06458000   2.50624300  -0.02447300
C    4.36733200   1.56884500   0.02806800
C    4.95020500   1.11728900  -1.34854300
O    5.66482000   1.79589100  -1.99827800
H    2.44213600  -2.04191800   0.06882600
H    4.03709800  -1.13462500   0.37372000
H    1.20385100   0.05156800  -0.12760800
H    0.97595700   2.39862300  -0.01618600
H    2.47519000   3.51911900  -0.06498800
H    4.87072800   0.92337000   0.76779300
H    4.67320600   2.60781700   0.20016100
H    4.63374600   0.08246200  -1.65578900