18

C    0.81472300  -0.74028000  -0.82551600
C    2.11178500  -0.17986200  -0.37272800
C    3.48954200   1.47701100   1.58635900
N    3.14897400   1.85498800   2.77186500
C    4.01591600   0.14301300   1.28221700
C    2.83489600  -0.77854100   0.79255900
O    3.31543700  -2.06632300   0.56485100
H    0.97020900  -1.61268100  -1.48917400
H    0.23922000  -0.00590800  -1.40735000
H    0.20136500  -1.09206000   0.01771300
H    2.68288600   0.44738700  -1.07017900
H    3.31347400   2.19897900   0.78035100
H    3.28441200   1.24960200   3.58299200
H    2.73897500   2.77220400   2.94670700
H    4.75202700   0.22263000   0.46844300
H    4.48763400  -0.32948400   2.15549400
H    2.13813600  -0.87720000   1.64390100
H    3.69176100  -2.12587600  -0.32141200