17

O    3.98878300   2.97212200   2.01163900
C    2.73390400   2.34680800   1.54264900
C    3.06588500   1.59963700   0.26650100
C    3.64894500   2.51550800  -0.81266000
C    4.93104800   3.17849500  -0.37695300
C    6.34854000   3.10451500  -0.71868600
O    5.46397400   4.23430900  -0.97996100
H    3.86241900   3.71278100   2.62852400
H    1.99881000   3.14824100   1.38110800
H    2.40343800   1.68357700   2.35078400
H    2.13571900   1.13884600  -0.09517000
H    3.75849800   0.77381400   0.49265900
H    2.93669700   3.30948200  -1.08950500
H    3.86409000   1.93867700  -1.72894200
H    4.57498600   3.26048100   1.10672900
H    6.67397400   2.58658100  -1.62682100
H    7.10746500   3.28328800   0.04761300