22

C    3.35506500  -1.13226800  -0.68415600
C    2.64014200  -0.22051000   0.29340200
C    3.24338600   1.29395900   0.22089100
N    2.49933400   2.05040900   1.12410800
C    4.76078000   1.36771300   0.47357100
C    5.24945800   2.80380200   0.25388000
C    5.18312800   0.81467800   1.83363400
H    2.82512900  -2.09758200  -0.68074500
H    4.39626600  -1.32752600  -0.39648600
H    3.33190100  -0.74275300  -1.71176800
H    2.73877100  -0.56493200   1.33196500
H    1.57021700  -0.14008900   0.05558000
H    2.97816900   1.61553500  -0.80165300
H    2.81927200   2.17886200   2.08766700
H    1.56753100   2.40338000   0.89800500
H    5.20673100   0.73630900  -0.30925400
H    4.87174900   3.48547100   1.03337600
H    4.93962700   3.19697600  -0.72557200
H    6.34682700   2.83576100   0.29217400
H    4.75870100   1.38628300   2.67718800
H    6.27416200   0.88903400   1.93731000
H    4.91631400  -0.24376900   1.96366000