11

N    1.04112900  -0.21328000   0.22593200
C    2.33596400  -0.23617300   0.23722200
C    3.17059900  -0.61308200  -0.92489400
C    3.57326600   0.76895800  -1.33463100
H    0.50731200   0.14868900   1.01539500
H    0.50456500  -0.55512800  -0.57158300
H    2.82600400   0.11669200   1.15225000
H    2.59765200  -1.14617400  -1.69793500
H    4.02966100  -1.21988400  -0.60427300
H    4.48388600   1.22680200  -0.94143100
H    2.92614200   1.35590000  -1.99050000