15

C    0.95752000   0.05705300   0.05424800
C    2.43166700   0.13577600   0.05652600
C    3.33804700  -0.58725800  -1.37932200
O    2.59376400  -1.02562200  -2.35393800
C    3.21534000   0.83363900  -0.98720900
C    4.51466700   1.54441900  -0.55903600
O    4.78044000   2.60950100  -1.00813600
H    0.59050100   0.84028500   0.74558800
H    0.60111200  -0.90092000   0.46016400
H    0.51887000   0.24415500  -0.93417600
H    2.96807200  -0.20537200   0.95137100
H    4.13259500  -1.22828600  -0.97665200
H    2.73347200  -1.96517500  -2.55353800
H    2.62457600   1.42269200  -1.70129700
H    5.15205300   1.00492400   0.18135200