16

N    2.86486500  -1.06295800  -0.32315000
C    2.31831700   0.07228000   0.32629200
C    3.36885600   1.16146000   0.08730600
C    3.33851400   2.08108100  -1.06899700
C    2.84264600   2.67197400   0.23257300
C    3.64162700   3.51993600   1.03107800
C    4.33228000   4.24503100   1.72288500
H    2.89615600  -1.10467600  -1.33908300
H    3.50719300  -1.68190100   0.16630400
H    2.17546700  -0.12095700   1.39634800
H    1.35603900   0.35821900  -0.12382300
H    4.33735200   0.97768100   0.56139200
H    2.54867800   1.94333800  -1.81407500
H    4.29039500   2.44731300  -1.45917400
H    1.75905500   2.76061900   0.36233600
H    4.93640200   4.89888300   2.33086700