16

C    1.35790100  -0.26275500   0.21054300
C    2.81461900  -0.23952800  -0.18667300
C    3.22177900  -0.22327500  -1.65148000
N    3.36254000   0.91917100  -0.82736500
C    4.35946100   1.92475600  -0.58483100
C    5.19633200   2.19045400  -1.74026900
C    5.90271300   2.41192300  -2.69298800
H    1.22467600   0.23813300   1.17884800
H    1.04286500  -1.30962900   0.31471000
H    0.72471300   0.22559200  -0.54188100
H    3.51133300  -0.68176300   0.53951500
H    2.40194300  -0.18819500  -2.38237400
H    4.16004200  -0.65784600  -2.01906300
H    4.94746800   1.59812000   0.29727700
H    3.81780000   2.83038800  -0.24377900
H    6.53637700   2.61885900  -3.53975600