17

C    0.88144700   0.52263500   0.00241200
C    2.32923500   0.26325600  -0.09029000
C    3.29196200   1.23865600  -0.09976700
C    4.70489700   1.01376300  -0.18896700
C    5.23806700  -0.28301600  -0.27757500
C    5.66014600   2.11143000  -0.19258700
C    5.35822000   3.42371600  -0.11633300
H    0.37178100   0.07420500  -0.86827200
H    0.63382200   1.58926400   0.06479100
H    0.46946600  -0.00538000   0.88014000
H    2.62029000  -0.79095400  -0.15448100
H    2.94895300   2.27382800  -0.03354000
H    4.61829400  -1.18075800  -0.28363000
H    6.31907100  -0.42915200  -0.34462700
H    6.71325900   1.82605900  -0.26429200
H    4.33789100   3.80686500  -0.04204500
H    6.15544400   4.17047600  -0.12700600