19

C    0.87126200   0.01251000   0.24583100
N    2.29308200  -0.01636600   0.43518400
C    3.06746500   1.14219600   0.84441300
C    4.48367000   0.61638300   1.03037600
C    4.28572800  -0.87349000   1.35994800
N    5.46079000  -1.65209500   1.24134300
C    3.07847400  -1.21504900   0.41690900
H    0.60261000  -0.58087400  -0.64100300
H    0.52368900   1.04686700   0.13868300
H    0.38106800  -0.44851600   1.12297500
H    2.61285500   1.52265000   1.78025200
H    2.95044400   1.94485700   0.09568300
H    5.05845200   0.71258900   0.09559000
H    5.03436000   1.14692500   1.81611200
H    3.91592200  -0.96566000   2.39549100
H    5.87471800  -1.69098700   0.31519900
H    5.42432200  -2.57039000   1.66858100
H    3.46846200  -1.36274700  -0.61118500
H    2.46574300  -2.09069100   0.67797500