11

C   -0.34665500   1.13020000   0.13843600
O   -1.14593200  -0.00142900   0.21804800
C   -0.34884400  -1.13365000   0.12585000
C    1.03996600  -0.68623300  -0.02109800
C    1.04128700   0.68176200  -0.01351100
H   -0.51989800   1.77395900   1.03611400
H   -0.70616800   1.78375600  -0.69456700
H   -0.70961000  -1.77720800  -0.71436300
H   -0.52334400  -1.78700400   1.01632300
H    1.90141400  -1.34911200  -0.11757800
H    1.90401400   1.34400900  -0.10263300