9

C    0.99422700   0.00211200  -0.00570900
C    2.50039400  -0.07193500  -0.00137500
N    3.17624500  -1.18765500   0.00151300
O    3.05382400   1.06071500  -0.00172700
H    0.65068600   1.04452900   0.00572300
H    0.63034600  -0.51566300   0.89508400
H    0.63770500  -0.49274400  -0.92228700
H    2.68990000  -2.08159800   0.00167300
H    4.19590700  -1.19657100   0.00329500