16

C    0.99585100   0.05981000  -0.45472600
C    2.37742800  -0.01626100   0.20328500
C    2.77498100  -1.32653800   0.91276800
C    3.74847100  -0.89942900   2.01881400
C    3.56132200   0.54611700   2.17039100
C    2.75750100   1.05008200   1.13236200
H    0.89777500  -0.74035300  -1.19934300
H    0.84259100   1.02228500  -0.96099400
H    0.20948900  -0.07125300   0.30238100
H    3.12131700   0.16869300  -0.62432400
H    3.19609200  -2.07190900   0.22669200
H    1.87364400  -1.77597300   1.35977200
H    4.81838600  -1.06962800   1.75320500
H    3.65489000  -1.43536700   2.98240400
H    3.99619300   1.15508200   2.96845500
H    2.49374400   2.10536400   1.01089300