13

O    1.08161900   0.02949300  -0.36657700
N    2.32745600  -0.03810000   0.05102100
C    2.88888300   1.16403800   0.11436100
C    4.31256100   1.30800800   0.56930600
N    4.49916500   2.74315900   0.48575500
C    3.41054500   3.35423300   0.06519900
C    2.37206900   2.43158200  -0.18410200
H    0.75430500  -0.88420100  -0.38200500
H    5.02351900   0.77919600  -0.08739100
H    4.46784600   0.94930500   1.60055200
H    5.36848300   3.21344000   0.72463600
H    3.38018700   4.43911500  -0.05441700
H    1.37206600   2.67016400  -0.53799800