14

C    0.95152900   0.08212700   0.01415100
C    2.48232100  -0.04458500   0.08391900
O    3.04981000   1.15329800  -0.50203400
N    3.81182500   1.17777300  -1.54671300
C    4.19157300   0.02550700  -2.09110700
C    3.85633200  -1.24737900  -1.57358800
C    3.01145100  -1.28646900  -0.49998600
H    0.65140200   1.03813400   0.46111600
H    0.49707400  -0.73763300   0.58676600
H    0.60811100   0.03670000  -1.02786800
H    2.78737200   0.02742900   1.14777900
H    4.81416300   0.15196600  -2.98083600
H    4.25369800  -2.15251100  -2.03611500
H    2.68176300  -2.23243600  -0.05952100