13

C    0.91029400  -0.12135500  -0.03880200
C    2.38469600  -0.17029200  -0.01681700
C    3.06653300   1.60450500   0.10855000
O    2.53975300   2.13340300   1.19019000
C    4.49307100   1.42518300   0.03927900
N    5.63742700   1.25141800   0.00291000
H    0.60581600  -1.18931700  -0.09423200
H    0.49701700   0.36802600  -0.93092900
H    0.46990100   0.28677200   0.87956000
H    2.89665800  -0.45145200  -0.94754300
H    2.86154300  -0.57375500   0.88659700
H    2.56275100   1.93010200  -0.81502800
H    3.13840600   2.14825900   1.95897600