21

C    2.27247700  -0.79575100   0.11633100
N    3.19815400  -0.00711600  -0.65918500
C    3.25396100   1.37015200  -0.57224800
C    3.99485000   1.88527000   0.84030600
N    4.01338400   3.27006000   0.91935500
C    2.82029400   3.98522800   1.31340200
C    5.04370700   4.02398900   0.23943900
H    2.14403900  -1.78114700  -0.34983900
H    1.29352300  -0.29656300   0.14711100
H    2.62009500  -0.95379600   1.15478500
H    4.01747200  -0.48704500  -1.01844700
H    2.24799000   1.81557200  -0.53673700
H    3.84345300   1.80725300  -1.38967200
H    5.00901100   1.46623500   0.81448100
H    3.40238700   1.44003900   1.65184800
H    2.22857800   4.28116000   0.42692900
H    3.09848200   4.90186900   1.85237500
H    2.19985200   3.35944500   1.96662800
H    5.95100400   3.41725100   0.13230600
H    5.28251100   4.92840500   0.81680600
H    4.70064100   4.34304200  -0.76216700