16

C    0.90817900  -0.18477300   0.66999300
N    2.06388200  -0.06979500  -0.21068800
C    2.49348200  -1.24448600  -0.92367000
O    1.92167600  -2.27797200  -0.79849500
C    2.69364800   1.14851500  -0.32452200
C    4.24257600   1.27112100  -0.55836300
C    3.36468300   1.62114000  -1.66446700
H    0.12703300   0.51229300   0.33143000
H    1.20930800   0.07881200   1.69496200
H    0.53715600  -1.21379000   0.63719400
H    3.37520700  -1.08506300  -1.57129800
H    2.23675800   1.92992700   0.28534900
H    4.80313000   0.33300400  -0.57918400
H    4.68146500   2.06025800   0.05866300
H    3.14692900   2.67207000  -1.87473700
H    3.26367400   0.94673700  -2.51869700