14

O    1.99676100   2.66436800  -0.04817000
C    1.86160900   1.58037300   0.41941900
N    2.96809100   0.67347600   0.49535600
C    4.18466300   1.01965600   0.01668400
C    5.35339800   1.56453800   1.37918200
O    5.80708400   0.30416900   1.30238800
C    5.31448100  -0.00269900  -0.01288900
H    0.92556800   1.15303800   0.82820700
H    2.83351800  -0.21999000   0.97022900
H    4.14519900   1.85784900  -0.69166300
H    4.96939300   1.88490900   2.35657800
H    5.86614200   2.33606500   0.77783800
H    6.06267300   0.20187300  -0.79284600
H    5.00115600  -1.05530000  -0.05305500