14

O    1.10360700   0.33997700   0.93731100
N    2.41089800   0.41996200   0.69603100
C    2.69750900   1.09950000  -0.34600600
C    4.13949500   1.19773300  -0.67355600
O    4.58284900   2.58604700  -0.37961000
C    5.78074400   2.94715500  -0.17830900
C    6.92175500   2.11613400  -0.22644100
H    1.02043200  -0.20621300   1.72989900
H    1.93531900   1.57496500  -0.97647000
H    4.35809100   1.05483400  -1.74206300
H    4.71550700   0.50634700  -0.04434500
H    5.88021200   4.01811100   0.04179100
H    6.86930000   1.04754400  -0.44904400
H    7.90100900   2.56406400  -0.04028900