19

C    1.81092800  -0.97632300  -0.82833800
O    2.10008000   0.07873800   0.12161600
C    3.12176600   0.82097300   0.06944600
C    4.14011600   0.67355600  -0.99027500
C    1.95131000   3.47140100  -0.41360900
C    3.15960300   3.27437400   0.43320900
C    3.20673600   1.87706900   1.10041400
H    0.81939500  -1.34448000  -0.55230300
H    2.55985400  -1.77142000  -0.72170400
H    1.80433000  -0.56278600  -1.84435400
H    5.04062600   1.25298300  -0.75966700
H    3.70881000   1.06174800  -1.93147700
H    4.40111400  -0.38126700  -1.16114000
H    0.98628900   3.06020300  -0.10083800
H    1.94469500   4.25042500  -1.17887000
H    4.08033400   3.45523000  -0.14495500
H    3.19080600   4.01277000   1.25826400
H    4.16485200   1.75378200   1.63365200
H    2.38154500   1.74878500   1.81366000