17

C    0.84619900  -0.36097200  -0.12578300
N    2.13363900   0.14910000  -0.57488400
C    3.28108500  -0.74905900  -0.65766900
N    2.23146800   1.40748800  -0.98642000
C    1.03153200   2.20428200  -1.23015500
C    3.51011200   2.04753300  -1.12156500
O    3.58810300   3.16262300  -1.52376200
H    0.33811200   0.37799100   0.50518700
H    1.02737100  -1.26685700   0.46241200
H    0.20640600  -0.61519800  -0.98657000
H    3.97213300  -0.58952800   0.18540600
H    3.80705600  -0.61433400  -1.61205700
H    2.90430200  -1.77618800  -0.60804800
H    0.33076900   1.64512500  -1.86174500
H    1.36076300   3.11027900  -1.75037300
H    0.55282500   2.49397600  -0.28365800
H    4.36480500   1.42523400  -0.80358100