23

C    1.02519300   0.03518900  -0.00910400
C    2.55759700  -0.00554400   0.01204800
C    3.02474100   1.49437200  -0.00619600
C    4.58224700   1.38023500   0.01394100
C    4.99233600   2.88716700  -0.00041900
C    6.56227900   2.82904200   0.01455800
C    7.03321100   4.28797100   0.00380700
H    0.69325800  -1.01824900   0.00400700
H    0.63198800   0.50747000  -0.91894800
H    0.60807400   0.53734700   0.87368900
H    2.95385900  -0.53209400  -0.86635600
H    2.93006800  -0.50274300   0.91754600
H    2.64731600   2.02391500   0.87781100
H    2.66920600   1.99584800  -0.91528500
H    4.95557100   0.85557500  -0.87375300
H    4.93490100   0.87920200   0.92346900
H    4.61952700   3.41466600   0.88675900
H    4.63639700   3.39379900  -0.90648900
H    6.92536200   2.28709400  -0.86880500
H    6.90923900   2.30549500   0.91533000
H    6.71628500   4.82295000  -0.90108400
H    8.13711100   4.25076400   0.01397700
H    6.70041600   4.84132300   0.89179600