15

C    0.92175200  -0.00332800   0.05525700
C    2.43613600   0.00220300   0.01738900
C    3.16966200   1.06829800   0.87039800
O    4.46703300   0.52665600   1.02525800
C    4.36738700  -0.73955000   1.45331000
C    3.11255900  -1.28880900   0.52308700
O    2.87479500  -2.41738100   0.34805800
H    0.50857100  -0.79485100  -0.58322400
H    0.56007200   0.95936800  -0.33687500
H    0.53916700  -0.12276200   1.07853700
H    2.80651200   0.04817600  -1.02651400
H    2.67501600   1.19215600   1.84957000
H    3.25357400   2.03537400   0.36228600
H    5.28820300  -1.32136900   1.32227600
H    3.89773400  -0.87667100   2.45108500