20

C    1.02868300  -0.00811800  -0.16228700
C    2.52792100  -0.14657700   0.05577900
C    3.17020100   1.05071600   0.77480400
N    4.31164300   0.49210700   1.43159800
C    4.35408900  -0.95035400   1.44534700
C    5.52096500  -1.44400300   0.55806000
C    2.95201200  -1.32548900   0.94955200
H    0.63489900  -0.89645400  -0.67451800
H    0.79537500   0.86512000  -0.78784100
H    0.49312400   0.09754500   0.79390300
H    3.02353500  -0.24492200  -0.92461700
H    2.50308500   1.45776800   1.56926400
H    3.46316100   1.91367400   0.15364100
H    5.05568300   1.06649900   1.83883200
H    4.56637200  -1.26791600   2.48243300
H    5.36628200  -1.16279600  -0.49242300
H    5.54922500  -2.53920500   0.63193100
H    6.48678800  -1.05066300   0.90342500
H    2.95046400  -2.28460900   0.41626200
H    2.26462700  -1.41827100   1.80541300