15

C    1.30990700   0.40908700  -1.15505600
O    2.73389400   0.58476000  -0.97330200
C    3.28063100   1.18487800   0.01426700
C    2.53888300   1.75852900   1.08249000
C    4.77508100   1.25795300  -0.06767500
C    5.44118900   1.59575700   1.18357600
C    6.00827300   1.86864100   2.21314400
H    1.20942700  -0.14016900  -2.09497200
H    0.82692100   1.39188400  -1.23187600
H    0.90628300  -0.18120800  -0.32204000
H    1.44991000   1.70025600   1.13372700
H    3.08612000   2.27354300   1.87583400
H    5.00859800   2.00582600  -0.85188400
H    5.13601800   0.29713900  -0.47363800
H    6.52795800   2.10822700   3.12561400