18

N    0.95575000  -0.23376800   0.27330000
C    2.26086400   0.01074700   0.01977300
C    2.66347400  -0.04492500  -1.47385700
O    2.34106600   1.15507400  -2.07937800
C    3.00687200   1.02666400   0.87844400
C    4.14349700   0.05299100   1.26073300
C    3.35328700  -1.16578500   0.84114200
H    0.50417500   0.10688100   1.11952900
H    0.41418100  -0.87244100  -0.30623400
H    2.20154900  -0.93103700  -1.94754700
H    3.75385300  -0.16488800  -1.53737500
H    1.43086900   1.15830400  -2.39268800
H    2.41349800   1.34828700   1.74574700
H    3.30774200   1.91051600   0.29828900
H    5.04618400   0.20056100   0.65464800
H    4.41808000   0.06335700   2.32329000
H    3.73362700  -1.86397900   0.08482200
H    2.75701500  -1.65833900   1.61663000