18

C    1.21857100  -0.54797100   0.03466200
C    2.73916200  -0.54277900  -0.10084000
C    3.24945400   0.90193200  -0.20625600
C    4.85548600   0.85777200  -0.33930100
C    5.19113900   2.25613900  -0.45603000
C    5.54200900   3.06136300   0.63453900
H    0.86468600  -1.58699400   0.10604600
H    0.73052700  -0.08679800  -0.83618700
H    0.88774700  -0.01890300   0.94026900
H    3.04828100  -1.10368300  -0.99600300
H    3.20280100  -1.03492600   0.76774900
H    2.96728400   1.47797900   0.68758300
H    2.82647500   1.40654500  -1.08736400
H    5.08141300   0.28430100  -1.24760600
H    5.25609200   0.37008800   0.55936400
H    5.10854300   2.73111300  -1.44221400
H    5.47671700   2.68074800   1.65979100
H    5.91225900   4.08020000   0.48423000