16

C    0.89160300  -0.09085600   0.02037800
C    2.35319400  -0.29821800  -0.08537100
C    2.95186000  -0.80791400  -1.33916600
C    3.09514000   1.66309700   0.08635900
O    2.51309800   2.18135100   1.13802300
C    4.51008000   1.43627300   0.09334900
N    5.64536800   1.20781800   0.12225100
H    0.59678500   0.47424600   0.91311500
H    0.46200600  -1.10690500   0.13420700
H    0.45041200   0.34675000  -0.88594500
H    2.86077600  -0.59857100   0.84282400
H    2.53467200  -0.33803600  -2.24106300
H    2.66637500  -1.87941200  -1.37684500
H    4.04931200  -0.78345000  -1.34806800
H    2.61763200   1.93046400  -0.86442500
H    3.06719000   2.17448100   1.93706600