12

C    0.69508500  -1.21654800   0.58338300
O   -0.51896500  -1.41363400  -0.22847400
N   -1.43378300  -0.52995400  -0.11722000
C   -1.21075800   0.71368500   0.12051900
C    0.15975800   1.24294900  -0.00318900
O    1.01014400   0.64051500  -0.93620200
C    1.17163100   0.19093500   0.36564500
H    1.38320900  -1.96171900   0.16517500
H    0.46602200  -1.45219600   1.63451300
H   -2.05731600   1.32205200   0.45706100
H    0.30811300   2.30872300   0.19554100
H    2.05437900   0.51219200   0.93473600