17

C    1.64930100  -0.33234000  -1.43617500
O    2.25492100  -0.22990400  -0.14097400
C    3.26791800   0.53325000   0.12155900
C    3.89177800   0.31360200   1.44969600
C    3.80079100   1.53742500  -0.83821000
C    2.98391800   2.56977400  -0.15950600
O    3.57632100   3.33279900   0.72794500
H    1.19662800   0.62606800  -1.72712900
H    0.86678700  -1.08984800  -1.33418300
H    2.38939900  -0.65925600  -2.17887000
H    4.41953900   1.20633400   1.80639800
H    4.63311800  -0.49784200   1.34275100
H    3.14102600  -0.01265700   2.18125800
H    3.53391400   1.37853100  -1.88934400
H    4.87636200   1.71851400  -0.71588700
H    1.92577100   2.72285700  -0.39535400
H    2.95818000   3.91093700   1.19794600