18

C    0.94307100  -0.14035200   0.18302600
C    2.39245900  -0.29464000  -0.05476100
C    2.88695100  -0.77092300  -1.36307100
C    3.11726000   1.71334200   0.05556300
C    2.53707200   2.35855000   1.26205500
C    4.50789600   1.44498600   0.01963800
N    5.63940200   1.17689200   0.00380200
H    0.69464600   0.27727000   1.16515900
H    0.55345400  -1.18032800   0.17964000
H    0.42055400   0.38878500  -0.62663600
H    2.99757900  -0.57383200   0.81933500
H    2.34779700  -0.33843600  -2.21728300
H    2.67071300  -1.86004200  -1.36248100
H    3.97351100  -0.67874500  -1.48549300
H    2.67128600   1.93732400  -0.92294700
H    2.83845200   1.86192100   2.19574600
H    1.44738600   2.45349100   1.19664500
H    2.95461300   3.38429400   1.30273400