16

C    3.10958900  -1.30032800  -0.35897400
C    2.44603500  -0.01422000   0.20280200
C    3.51653800   0.96690800   0.44910300
O    3.88177600   1.88213700  -0.49858300
C    3.08682600   2.65681700   0.28795400
C    3.67550300   3.74833600   1.06579900
H    2.31523700  -2.04151200  -0.52038600
H    3.83720800  -1.72489200   0.34606900
H    3.60640600  -1.10227400  -1.31796000
H    1.94654100  -0.25195400   1.15519500
H    1.70635200   0.37520600  -0.51074600
H    4.28104800   0.77732800   1.21655300
H    2.00734900   2.62908000   0.07690200
H    4.71485700   3.54403500   1.35375100
H    3.04812600   3.99526200   1.93435000
H    3.67517000   4.64633400   0.41422100