16

C    1.71965900  -0.85646900   0.96888400
C    2.99387700  -0.02193700   1.09042300
N    3.10999400   0.94589500  -0.00248200
O    2.41392900   2.02288600   0.17092000
C    2.39084300   3.08102900  -0.81928200
C    3.84191900   0.63949700  -1.21484700
O    4.39961300  -0.40512200  -1.28859000
H    1.68775700  -1.54790500   1.82138500
H    1.71969400  -1.45253600   0.04635900
H    0.82355900  -0.22255100   1.00474400
H    3.89366000  -0.64706400   1.03045000
H    3.01300900   0.56945400   2.01625100
H    1.75771500   3.84312500  -0.35547300
H    1.93073500   2.71477700  -1.74719200
H    3.40617200   3.46969800  -0.97543700
H    3.81521900   1.42779800  -1.98669400