12

N    0.99925900   0.02991400  -0.00112100
C    2.32719900   0.00284500  -0.00062100
C    3.10198300   1.20955600  -0.00285300
O    2.50751900   2.37408000  -0.00512700
S    4.79785200   0.90269500  -0.00201500
C    4.48938400  -0.81888200   0.00133200
C    3.17458400  -1.15269300   0.00177300
H    0.49750400   0.91337400  -0.00266700
H    0.45426900  -0.82584900   0.00084100
H    3.10351600   3.13811300  -0.00672400
H    5.34221000  -1.49868800   0.00278600
H    2.80842000  -2.17880500   0.00375700