15

O    1.18228200   0.22015500   0.28004800
C    2.50846800   0.04685100  -0.07252400
C    2.68724600  -1.39570900  -0.59314400
O    3.44837300  -1.29619900  -1.82684200
C    3.61612200  -0.07301100  -2.18107800
C    1.99295900   0.93417200  -2.40302600
C    2.95609400   0.90528700  -1.28610000
H    1.08851500   0.88363700   0.97140000
H    3.19975400   0.24497300   0.76263400
H    1.71622000  -1.84853000  -0.83765200
H    3.24943500  -2.06458900   0.06811100
H    4.26153200   0.11414600  -3.04476000
H    2.10553300   1.64749400  -3.22385800
H    1.11897700   0.27573500  -2.39774300
H    3.50192500   1.84062900  -1.10607800