9

O    1.71141800  -0.51577700   0.94030500
C    2.23991500  -0.10164200  -0.01625600
C    3.02374800   1.33753400   0.05623000
C    4.41083700   1.07024000   0.00227100
C    5.60736700   0.80373000  -0.02693200
H    2.26619300  -0.58394300  -1.02055400
H    2.69894500   1.81274200   0.99318000
H    2.63816800   1.85816900  -0.83765500
H    6.66786700   0.59066400  -0.05371900