12

O    1.76132900  -0.95937300  -0.87385900
C    1.72132000  -0.04919500  -0.13772600
C    2.94235000   1.00942200   0.04076200
C    4.22524400   0.34847300   0.02578900
C    5.08083500   0.35561600   1.11666500
C    6.35206300  -0.24272600   1.05548700
N    7.40408200  -0.74076600   1.00231300
H    0.84933800   0.23697300   0.49715800
H    2.74284800   1.61694400   0.93236600
H    2.76356700   1.59568600  -0.88184700
H    4.52321600  -0.19997100  -0.87600600
H    4.80262300   0.84694500   2.05716700