16

N    1.06277000  -0.24955100  -0.28009300
C    2.37270000  -0.38213200  -0.19066100
C    2.98820500  -1.13228000   0.95794000
C    3.78371700  -0.12409200   1.79394200
C    4.59896100   0.80473300   0.86762400
C    3.28381600   1.51491900   0.86659600
O    2.85626200   0.98442500   2.01185700
H    0.62386000   0.15051300  -1.10421800
H    0.45442900  -0.46450400   0.50565000
H    2.93271800  -0.22792300  -1.11783300
H    3.65221900  -1.92449800   0.58161600
H    2.21368200  -1.60702300   1.57791900
H    4.20576400  -0.51882700   2.72519100
H    5.03500300   0.41594900  -0.06128600
H    5.35607900   1.37309200   1.43103700
H    2.87877600   2.45684000   0.48595400