15

C    2.80775100  -1.65037100  -0.19672300
C    3.67074000  -0.66296200   0.21470100
C    3.39635200   0.70289200   0.02624900
C    4.28801400   1.69700500   0.45233000
N    4.07498200   2.99132500   0.29794900
C    4.94223100   4.06372900   0.70880400
N    6.05052500   3.97844700   1.28516900
H    3.04235600  -2.70534100  -0.03951700
H    1.86274100  -1.41054600  -0.69254100
H    4.60646900  -0.94759500   0.70729900
H    2.46313400   0.99938000  -0.46556400
H    5.22276900   1.40903500   0.94459700
H    3.21062700   3.28453900  -0.15846000
H    4.51302000   5.04060000   0.45214600
H    6.39987800   3.04184500   1.49917100