18

C    1.02547900   0.03518300  -0.11353100
C    2.54397500  -0.13218900  -0.00830100
C    2.94409200  -0.77860200   1.31656000
C    3.17942700  -0.85590800  -1.19881100
C    3.12103900   1.38178600  -0.10615700
N    2.89228100   2.11794000  -1.16551100
O    3.75708800   1.71537500   0.88300500
H    0.69464500   0.44039600  -1.07978100
H    0.61758000   0.65112100   0.70049500
H    0.59149000  -0.97267200  -0.01045600
H    2.53596100  -0.23729200   2.18038800
H    4.03391900  -0.85735800   1.42546500
H    2.52934800  -1.79608700   1.32932000
H    2.86506000  -0.45725700  -2.17325700
H    2.84205700  -1.90375700  -1.14465600
H    4.27727700  -0.86309200  -1.14336600
H    2.35080300   1.75485700  -1.94272100
H    3.25436400   3.06726600  -1.22648600