16

C    1.26579100  -1.92946200  -0.55249600
C    1.48869400  -0.89530400   0.31487100
C    2.09934900   0.35395900  -0.08423800
C    3.73651800   0.43495500   0.34312900
N    4.56309200  -0.36127700  -0.43280000
C    4.90982100   0.00542400  -1.74311600
O    4.44867700   0.98664300  -2.25054100
H    0.72468100  -2.82575700  -0.23771500
H    1.59157900  -1.87794800  -1.59666500
H    1.17361500  -1.00364400   1.35882000
H    1.71242100   1.21262200   0.48157800
H    2.11017100   0.55297400  -1.16497900
H    3.80107300   0.18732600   1.40817400
H    3.91833600   1.49895200   0.13409900
H    4.88475400  -1.26083300  -0.07992700
H    5.61798000  -0.69504700  -2.22858300