19

C    3.22321000  -1.56548500  -0.85293700
C    2.93116000  -0.48612300   0.17588900
O    3.38903700  -0.83983900   1.46933600
C    3.63247700   0.85764200  -0.13241800
C    5.08606100   0.70705300   0.14354600
C    6.06983200   0.76852600  -0.95256700
C    5.46828700   0.42244700   1.46687900
H    2.89367700  -1.25556400  -1.85483300
H    2.67654900  -2.48739300  -0.60395500
H    4.29646800  -1.81003500  -0.89087600
H    1.84552500  -0.29186500   0.20982200
H    3.13625300  -1.74561100   1.68680100
H    3.22704000   1.62207800   0.55393400
H    3.43842400   1.17182500  -1.16575800
H    5.73139800   0.13340200  -1.79003700
H    7.09047000   0.50543000  -0.65150300
H    6.06833300   1.79706200  -1.36114300
H    4.88205800   0.77814100   2.31636200
H    6.41190100  -0.09340900   1.67472100