19

N    1.99159600   1.22253400   2.79448500
C    3.15365500   1.40192600   2.04445500
C    2.92394500   2.28069700   0.69475100
N    4.12649600   2.43294800  -0.02048800
C    5.12485500   3.33524100   0.33901400
C    6.56069300   2.81215600   0.60810000
C    6.28295300   3.59680400  -0.61170300
H    1.59536600   2.01433600   3.28642900
H    1.31163200   0.53571900   2.49179900
H    3.56674200   0.43399600   1.72627100
H    3.92352600   1.94209500   2.61809500
H    2.54187500   3.26114700   1.01219800
H    2.17741800   1.76523500   0.07723400
H    4.37524900   1.70406100  -0.68902200
H    4.76411700   4.15443000   0.96534200
H    6.71370800   1.73377600   0.51847500
H    7.06599900   3.28408600   1.45416600
H    6.61093700   4.63748200  -0.66476800
H    6.25627500   3.07729300  -1.57358700