12

C    3.06492800  -1.14668300   0.52952400
O    2.42321400   0.12415400   0.28246700
C    3.08926400   1.21182000   0.14705000
C    2.43982900   2.45596600  -0.09614400
S    3.58907700   3.65106200  -0.21881900
N    4.92209200   2.62980600   0.03084700
C    4.54254400   1.41251800   0.20529400
H    2.25210500  -1.87456200   0.59719300
H    3.61669400  -1.09532300   1.47780200
H    3.72864900  -1.38673500  -0.31200000
H    1.36235500   2.60923600  -0.18850800
H    5.28492200   0.62828000   0.37942200