15

C    1.10129600   0.18979900   0.49130300
C    2.48076900  -0.15593500   0.01276000
C    3.37127700   1.00873800  -0.56850100
N    3.69138100   0.34466400   0.64342000
N    4.68051400  -0.55566700   0.69492800
C    4.25741200  -1.67068100   0.20721800
C    2.86445000  -1.58386000  -0.33891600
H    1.03733300   1.23084700   0.83127000
H    0.82395600  -0.47440800   1.32244000
H    0.38372000   0.03926900  -0.32751500
H    2.89529000   1.99018200  -0.48042800
H    4.06190100   0.85715900  -1.40572700
H    4.90743700  -2.54952700   0.19518500
H    2.81944800  -1.78137300  -1.42590100
H    2.20645000  -2.33459500   0.13109600