17

C   -1.46652300   0.74488400   0.14089900
C   -1.44262000  -0.71503300  -0.28555300
O   -0.34971300  -1.38786500   0.37032200
C    0.79154800  -1.51384000  -0.25091000
C    1.67911500   0.17953900  -0.23318300
O    0.92071100   1.03634100   0.39520400
C   -0.24880100   1.56247800  -0.26231900
H   -2.34795000   1.21168500  -0.32660300
H   -1.61088600   0.80942300   1.22947300
H   -1.33490600  -0.83475300  -1.37696300
H   -2.34925700  -1.23562100   0.04387300
H    1.50657900  -2.12572300   0.31052000
H    0.75276900  -1.66069500  -1.34178800
H    2.58415300  -0.06924900   0.33236800
H    1.78731000   0.31251000  -1.32116100
H   -0.33950600   2.59892300   0.08275900
H   -0.07997200   1.55937600  -1.35256600