16

C    1.81901600  -0.28577700   1.46939000
C    2.29366500   0.09083600   0.02346100
C    2.94407300   1.39087700   0.08314600
C    4.34776700   1.61056100   0.04821100
C    5.35821200   0.53427000  -0.07368300
C    4.76839600   2.95788900   0.09818700
N    5.10910200   4.07172200   0.14167500
H    1.28321900  -1.24102600   1.39323400
H    1.13543200   0.46898900   1.87955300
H    2.67262800  -0.41013400   2.14836100
H    1.38859500   0.17738900  -0.60108400
H    2.94291100  -0.69741600  -0.37831500
H    2.31010500   2.27704200   0.21808700
H    5.05848700  -0.37007200   0.47472800
H    6.35161100   0.86862700   0.24951100
H    5.43487000   0.25233000  -1.14367300