17

C    0.30668900   0.37622400   0.04541000
C    1.56814200   0.40527200   0.83020100
C    2.75098600   1.15556400   0.31050300
C    2.77799800   2.62402700   0.68572900
O    4.03978500   0.58834200   0.85215200
C    4.28833000  -0.63903400   0.95181000
O    3.48073100  -1.58858600   0.72074300
H   -0.34974300  -0.44247900   0.37343600
H    0.48233500   0.28930200  -1.03723400
H   -0.26710300   1.30976100   0.20965300
H    2.55659800  -1.24993900   0.55837400
H    1.50516400   0.28914900   1.92172600
H    2.85754700   1.03080900  -0.77946900
H    2.71607900   2.75372500   1.77474400
H    1.91360800   3.11867900   0.22166400
H    3.69291800   3.10084700   0.30914300
H    5.30341000  -0.91682500   1.26740400