14

O    1.90678800  -0.16746000  -1.29348800
C    2.00178100   0.18341300   0.04815100
C    3.15071900   1.17438300   0.08757800
C    2.92343300   2.48370800  -0.72389000
C    3.05923500   3.14874700   0.67976800
O    3.01154900   4.34302800   0.96450200
N    3.24116100   2.01560600   1.30306500
H    1.29404500  -0.89976300  -1.41345300
H    2.23844000  -0.66904300   0.71223700
H    1.08390600   0.66838000   0.43764200
H    4.10800500   0.69112400  -0.15396000
H    1.92681700   2.62925900  -1.16286600
H    3.72177300   2.80415200  -1.40639900
H    3.43614300   1.82646700   2.28676200