13

C    2.93407800  -1.25130400   0.52803800
N    2.40401700   0.08026100   0.29669500
C    3.10869800   1.18721100   0.08590700
C    2.61168500   2.48875400  -0.14057700
O    3.61192500   3.30083200  -0.30294500
N    4.82344800   2.62380000  -0.20046300
C    4.54337300   1.38536100   0.02713400
H    2.55995500  -1.93017700  -0.25239800
H    2.58811700  -1.61322100   1.50744600
H    4.02812000  -1.23847800   0.50822000
H    1.38745700   0.16838100   0.29718300
H    1.60269000   2.89954500  -0.19837700
H    5.35314200   0.66544200   0.14380800