13

N    2.49577300  -0.41168000  -1.20154500
C    2.51465700  -0.11709100   0.20354900
C    2.94740200   1.31084200   0.10571900
C    2.16690200   2.45327300  -0.08753000
O    2.99615000   3.48130100  -0.17074900
C    4.24803200   2.95929100  -0.06922500
N    4.26760100   1.68120800   0.07776300
H    1.64988500  -0.30917000  -1.76032000
H    3.37472000  -0.52471800  -1.70672600
H    3.26021900  -0.72195600   0.73428500
H    1.52322500  -0.25146200   0.64998300
H    1.09641700   2.64774000  -0.13048800
H    5.08036400   3.66066600  -0.11725300