13

C    1.08041200  -0.37266600   0.73250500
C    2.44795600  -0.88115000   0.45670800
O    2.97495500  -1.91609900   0.51265800
C    3.55925900   0.46487600  -0.10763600
O    3.01467100   1.50021700  -0.15845100
C    4.89780200  -0.02805300  -0.37902100
C    5.83758300   0.83467700  -0.80285900
H    1.14877500   0.41297200   1.50020400
H    0.45346800  -1.20896300   1.06606500
H    0.68693500   0.08603200  -0.18730600
H    5.07502800  -1.09347100  -0.22187900
H    5.63328300   1.89864800  -0.95229300
H    6.84982500   0.47684900  -1.01097600