15

C    1.06648400  -0.05628600   0.41124700
C    2.33969100   0.05274400   0.01914400
C    3.16097100   1.30611000  -0.22068600
C    4.54998900   0.79268000  -0.65514200
N    4.41224000  -0.65485900  -0.62897800
C    3.21356100  -1.09484500  -0.26366400
N    3.03508600  -2.41760900  -0.22339800
H    0.58171800  -1.02629900   0.55023600
H    0.45686200   0.82815100   0.60940400
H    3.22917200   1.91536600   0.69117300
H    2.70704300   1.93385300  -0.99993500
H    4.84591900   1.10070300  -1.67079500
H    5.36861400   1.08150600   0.02343200
H    5.15948400  -1.31158400  -0.86730100
H    2.08214600  -2.66579000   0.06824500