17

C    1.05060100   2.45033100   0.77507700
C    2.49105000   2.04297800   0.83506300
O    3.11300200   1.78032900   1.83357000
N    3.15871000   1.95412100  -0.40686900
C    4.44635400   1.45397000  -0.47825800
C    5.63292900   2.50924900   0.17009100
N    5.82719000   3.64797900  -0.55816700
H    0.89572900   3.31366900   0.11184500
H    0.70644900   2.69146100   1.78668300
H    0.45161100   1.61151900   0.38734300
H    2.70207700   2.29941000  -1.24610900
H    4.75673600   1.23037200  -1.50462800
H    4.59728500   0.61390100   0.21517800
H    6.52399700   1.86950300   0.18809500
H    5.19875000   2.68048600   1.16768400
H    6.55525300   3.71355500  -1.26495000
H    5.22916400   4.46213100  -0.44498900