15

O    1.00980700  -0.24474400   0.13013300
C    2.36846800  -0.05899900  -0.00340100
C    2.96147300   1.12065100   0.79300800
C    4.33627100   0.63895400   1.26104800
N    4.17023900  -0.82423500   1.27866500
C    3.11516800  -1.24311700   0.64024200
N    2.77044300  -2.50366900   0.45497900
H    0.53797300   0.01330200  -0.66852500
H    2.69795700  -0.03512100  -1.05978800
H    2.29845200   1.30199300   1.65182000
H    3.01330300   2.03735100   0.19333400
H    5.14820500   0.89212900   0.56160100
H    4.61428300   0.99485300   2.26071600
H    4.81946400  -1.45781700   1.74355600
H    1.77125000  -2.70817800   0.59190800