17

C    1.86105000  -1.58490900   0.61520200
C    3.22214900  -1.08637000   0.13835700
C    3.17146400   0.41570900  -0.13257500
C    4.42749900   1.11068800  -0.61695600
O    5.43718700   0.39554800  -0.77496200
O    4.40574200   2.35873900  -0.83811100
C    5.59990900   3.06617200  -1.30855700
H    1.90380800  -2.66457300   0.80863400
H    1.08006600  -1.41169700  -0.13991600
H    1.55399700  -1.09044300   1.54868300
H    3.51806600  -1.61793200  -0.77892900
H    3.98899500  -1.29900500   0.89880500
H    2.91150000   0.99616500   0.77330400
H    2.43733300   0.67441800  -0.91960400
H    5.28296700   4.10685700  -1.40966900
H    5.90009300   2.64787700  -2.27766400
H    6.39089100   2.96478300  -0.55470100