13

C    0.89105800   0.02141700   0.05413100
C    2.39700500  -0.16611400   0.00151400
C    2.83418900  -1.44910500  -0.17193400
O    3.19902700  -2.51957100  -0.31701500
C    3.28392300   0.92673700   0.10190200
C    4.67643300   0.98749100   0.11329500
O    5.55394800   0.03168800   0.06798000
H    0.58589500   0.71769000  -0.74020400
H    0.61254300   0.44469100   1.03018300
H    0.34601800  -0.92083200  -0.08363200
H    5.22348700  -0.87664200   0.05311200
H    2.79644300   1.90166500   0.18567200
H    5.15327700   1.97110500   0.16701400