16

C    0.81682100  -0.10180300   0.45483400
C    2.26878500   0.00069200   0.29722200
C    3.00393800   1.10995600  -0.18088600
C    2.41936300   2.38172000  -0.61189100
C    4.47732900   0.96439000  -0.24690100
O    5.07237800   2.10213300  -0.72457000
H    0.45493800  -0.97499000  -0.12044400
H    0.25349300   0.79071800   0.16463600
H    0.58824300  -0.36206000   1.50573900
H    2.85304800  -0.88439900   0.58277700
H    1.32963200   2.43796800  -0.54361800
H    2.76020400   2.59011800  -1.64380300
H    2.89246400   3.19707100  -0.03239300
H    4.68303400   0.05529400  -0.86360100
H    4.81748100   0.67397300   0.77735300
H    6.02993200   2.00334300  -0.76575500