20

C    1.92337800  -0.55402600   1.32450000
C    2.60069300  -0.11956700   0.01628800
C    3.05411000   1.29187800   0.05792800
C    4.32208700   1.72439700  -0.21130400
C    4.69083100   3.12593500  -0.22746500
C    5.43977900   3.51965900   1.26583800
N    5.80840500   4.84068100   1.29863200
H    1.56572500  -1.58795300   1.23132400
H    1.05731100   0.08176400   1.56049100
H    2.62493800  -0.51271800   2.16993700
H    1.86502200  -0.20303300  -0.80505300
H    3.43871700  -0.78594800  -0.23669700
H    2.29241200   2.04305300   0.31076400
H    5.10372100   0.98313300  -0.41395000
H    3.83952400   3.81493400  -0.29926500
H    5.46983800   3.37154300  -0.95991100
H    6.30127200   2.84191300   1.31281700
H    4.68331600   3.28164800   2.02202800
H    6.66508700   5.15941600   0.85452900
H    5.14946500   5.56426700   1.57152500