14

C    0.70396200   1.23072700  -0.13895600
N   -0.67972600   1.20492900  -0.53243400
C   -1.41050700   0.02294600  -0.15966500
C   -0.33349900  -0.92347200   0.31036700
N    0.65461900  -1.12774100  -0.72808700
C    0.96517500  -0.18166600   0.32309300
H    1.32420300   1.53627500  -1.00244800
H    0.83328500   2.01005700   0.63938000
H   -1.13125300   2.00322300  -0.98771600
H   -2.15891700   0.30091500   0.61007600
H   -1.97593000  -0.34875500  -1.03477000
H   -0.57585900  -1.69915100   1.03997900
H    1.15745700  -2.00957200  -0.63752400
H    1.74557900  -0.37314500   1.06272400