10

C    0.94284100   0.11044100   0.00010900
C    2.16614900  -0.00490600   0.00037600
C    3.54543700  -0.10772500   0.00068000
N    4.28620200   1.06608000   0.00059400
O    5.52507900   0.69940600   0.00092000
C    5.64704100  -0.66741600   0.00121900
C    4.41668900  -1.23231700   0.00107700
H   -0.13561000   0.21249500  -0.00010700
H    6.66824700  -1.04648900   0.00150300
H    4.15297100  -2.28672800   0.00123000