17

C    0.27472600  -0.13855400  -0.47021600
C    1.66373700  -0.55956700  -0.16416900
C    2.02494400  -1.99568600  -0.23273900
C    2.60158700   0.41525700   0.18230700
O    3.82426200   0.06736300   0.45374300
C    4.78940700   0.97740400   0.79986600
C    6.01835500   0.53039900   1.06160100
H    0.11587800   0.94372000  -0.38816400
H   -0.42653900  -0.65778400   0.20505500
H    0.00543200  -0.46561300  -1.48905700
H    1.37292200  -2.56827100   0.44826200
H    3.07273500  -2.19526500   0.01392000
H    1.80834900  -2.37738700  -1.24483200
H    2.34535300   1.48057600   0.23590300
H    4.46498800   2.02114100   0.83401500
H    6.26207100  -0.53262900   1.00488100
H    6.79925700   1.23956900   1.33867400