14

O    3.43531100   4.06882100  -0.89463900
C    2.63869800   3.27883200  -0.49692800
C    2.95608100   1.88099400   0.04423600
C    4.37209900   1.41613900  -0.22790000
C    5.45018300   2.40266700   0.20595400
C    5.24978000   2.89572700   1.56131700
N    4.96944500   3.28566000   2.61380400
H    1.55714600   3.58303800  -0.48287700
H    2.17572800   1.21699100  -0.36199100
H    2.73307500   2.01421800   1.12450200
H    4.50740500   1.15913700  -1.28848700
H    4.48078200   0.47175600   0.33800800
H    5.43352400   3.28690700  -0.47996900
H    6.46005400   1.97810100   0.08730000