21

C    2.28943400  -0.34192400  -1.42435600
C    2.45374300   0.07624200   0.03203300
C    3.17796200  -0.95759200   0.88632100
C    3.32723800   1.40877200   0.05168200
C    2.62571700   2.59040800  -0.66825200
C    3.15356400   3.28730500   0.61825800
C    3.44829300   2.02050100   1.47172300
H    1.71622800   0.38666300  -2.01319800
H    1.73786300  -1.29475400  -1.44604800
H    3.26126300  -0.51165500  -1.91155200
H    1.47375000   0.31631800   0.47288300
H    4.19284900  -1.15725600   0.51115300
H    2.61362000  -1.90158900   0.83164000
H    3.23787100  -0.66761400   1.94389300
H    4.34062000   1.30379800  -0.36599900
H    1.53335200   2.51699000  -0.70588900
H    3.04857800   2.90007500  -1.62852100
H    4.07370100   3.84786600   0.41389300
H    2.33428100   3.86058100   1.08591200
H    4.42632500   1.94605600   1.95621300
H    2.63216600   1.75593000   2.15291000