15

C    4.23243100  -0.49645400   1.57221900
O    3.89312600   0.87860200   1.79053200
C    3.06190900   1.46776800   0.94790400
C    2.42436800   2.70794000   1.38919400
C    2.73848900   3.32725600   2.54953400
C    4.09796600   2.21060200  -0.33059100
O    3.68848000   2.34103900  -1.40702900
H    4.90889000  -0.77884400   2.38434100
H    4.74359600  -0.61401100   0.60380900
H    3.32503200  -1.11601400   1.60251700
H    2.45684800   0.80462200   0.30531900
H    1.67621700   3.12199400   0.70662600
H    3.49931600   2.92624400   3.22462600
H    2.20949900   4.23319600   2.85409600
H    5.08157400   2.46073200   0.12695600