12

C    1.21462800  -0.12520100   0.04574200
N    2.21063800   0.32960300   0.67610900
N    2.98020900   1.36073900   0.44561800
C    4.36100700   1.17104300  -0.02913300
C    4.92415800   2.45489400  -0.41341000
C    5.40122100   3.51753400  -0.72596900
H    0.71752800  -1.01357000   0.45066000
H    0.84983800   0.34641200  -0.87938200
H    2.76818000   2.20732000   0.98786800
H    4.32721800   0.46347000  -0.87365900
H    4.94615100   0.70172300   0.78273900
H    5.83404900   4.46315800  -1.00798100