14

C    1.03718900  -0.30514200  -0.00738000
N    2.38784200   0.15639100  -0.14187000
C    2.68179800   1.37115900   0.06388100
N    4.02369000   1.71839200  -0.09325800
C    4.55439600   2.93297000   0.07198300
C    5.89995900   3.18216600  -0.10642700
H    1.02747400  -1.12144000   0.73206800
H    0.73651800  -0.76374000  -0.96264700
H    0.31232500   0.47341400   0.28136600
H    2.00440000   2.19107300   0.35308600
H    4.61824700   0.92620100  -0.36251800
H    3.86061900   3.72887700   0.35908200
H    6.59967000   2.39180000  -0.39336100
H    6.28957600   4.19112000   0.03963600