17

C    1.13282200  -0.10593000   0.19661800
C    2.51341900   0.42776900   0.11592800
C    3.67323100  -0.49733200  -0.14601900
C    4.01585600  -0.57700100  -1.63630600
O    4.35375800   0.72356000  -2.07797900
N    2.68961400   1.70345600   0.32011900
N    3.71407200   2.37416200  -0.07107200
H    0.38271200   0.69143200   0.24208800
H    1.05160000  -0.73410800   1.10084200
H    0.93850200  -0.76821900  -0.66109600
H    3.41524900  -1.50424200   0.21061100
H    4.55766500  -0.15449800   0.41267200
H    3.16101500  -0.97714700  -2.20860300
H    4.86136700  -1.27449600  -1.75310800
H    4.59147000   0.71846200  -3.01183000
H    4.20959000   2.06554400  -0.93388600
H    3.89902900   3.25790600   0.40333400