19

C    1.94861100  -0.75936800   0.86308200
C    2.29753300   0.19049800  -0.29208100
C    3.26276300   1.26811200   0.12877900
N    2.92060600   2.40901600   0.66666600
N    4.61345900   1.07507800  -0.00061000
C    5.15562500  -0.15024000  -0.56465200
C    5.57937900   2.08956000   0.39227600
H    1.21142100  -1.49779700   0.52240600
H    1.51155500  -0.21141500   1.70984000
H    2.82735000  -1.30732900   1.23369100
H    1.38697700   0.70039300  -0.63946800
H    2.68019500  -0.36713400  -1.15737000
H    1.90337700   2.48881700   0.76465100
H    4.64452700  -1.02806500  -0.15067600
H    6.22623700  -0.20597800  -0.34181700
H    5.01780000  -0.13904700  -1.65902300
H    5.06596300   3.00262200   0.70159000
H    6.24747300   2.27532300  -0.46235100
H    6.18239800   1.68783900   1.22232800