21

C    1.02736600   0.30640900   0.89397000
C    2.47712300   0.02124400   0.51741200
C    3.33600800   1.32235000   0.64046300
C    4.71810200   0.96119500   0.23454100
C    5.77953500   2.45505900   0.37232100
C    6.72905900   1.49490800   1.00579100
C    5.68940000   0.30731800   1.15718300
H    0.44045800  -0.61927100   0.80577800
H    0.57643100   1.05568600   0.22770700
H    0.94144400   0.66503500   1.92967400
H    2.53672900  -0.36000600  -0.51352400
H    2.90429900  -0.75113400   1.17622800
H    3.29736400   1.67727500   1.68179700
H    2.91396300   2.09375200  -0.02002900
H    4.85997000   0.72356400  -0.83011000
H    5.23356800   3.15182600   1.01717600
H    5.92802200   2.80687600  -0.65504600
H    7.55251700   1.20774800   0.34074700
H    7.09546600   1.82052400   1.99006500
H    6.10820100  -0.64548800   0.80641100
H    5.32094600   0.22527500   2.18758700