16

C    0.91047300   0.06930200   0.01579500
C    2.38368400   0.07083700  -0.35713400
C    3.18642900   1.12039700   0.36490500
O    2.80345100   1.95308300   1.11057000
C    4.76398400   1.04994800   0.04520900
C    5.53748900   2.17441900   0.71113000
N    5.57847700   0.82561200   1.13462300
H    0.39461700  -0.70837800  -0.56249000
H    0.44238700   1.03662300  -0.20946600
H    0.76922300  -0.14424000   1.08364800
H    2.54567900   0.26593900  -1.43368600
H    2.87489100  -0.89822300  -0.15807200
H    4.99372600   0.55696500  -0.90656400
H    4.88016900   2.83660100   1.30126300
H    6.44809100   2.61030600   0.28779700
H    6.35628900   0.17196400   1.25049100