16

C    0.87860100  -0.25653000  -0.15930700
C    2.39325400  -0.11117800  -0.08959200
C    3.12183300  -0.58532400  -1.33631100
N    2.68622200   1.31767100   0.18131400
N    3.89782700   1.80599300   0.11058600
C    4.47002500   2.47590700  -0.79432600
H    0.38877000   0.10650900   0.75665500
H    0.62956200  -1.32072500  -0.26174700
H    0.46449900   0.27731200  -1.02675200
H    2.77353700  -0.65868800   0.79303100
H    2.80015900  -0.02344800  -2.22624300
H    2.87319000  -1.64206800  -1.50130700
H    4.21428000  -0.52291200  -1.23411700
H    2.07890500   1.80636700   0.84860600
H    5.51720800   2.75573600  -0.63675700
H    3.94421100   2.78134500  -1.71095100