15

O    1.04160200   0.89842200   0.58529900
N    2.27382500   1.32820000   0.69584900
C    3.07391000   0.66391100  -0.14891600
N    4.33909600   0.97981200  -0.15791100
C    5.13033700   1.96403900   0.60029700
C    6.38575800   1.49666400  -0.16769900
C    5.49456800   0.48754200  -0.92508900
H    0.51105800   1.41306500   1.21773900
H    2.70134200  -0.12199500  -0.81950200
H    5.09935700   1.76236900   1.68104100
H    4.78329500   2.99118500   0.41548700
H    6.84168900   2.26425600  -0.80298200
H    7.15817500   1.03781400   0.45951300
H    5.36730700   0.65310500  -2.00522000
H    5.68456600  -0.57955300  -0.73650800