14

C    0.91107000  -0.00201500  -0.16745000
N    2.32673000   0.17202600  -0.19542400
C    2.99209100   1.40559600   0.12360600
C    4.43613500   1.34123700   0.02562200
C    5.64453800   1.35139800  -0.03774800
C    7.11833200   1.39609900  -0.10545500
O    7.71873500   2.39597500   0.15764400
H    0.66222900  -0.82256400   0.53109500
H    0.56774400  -0.32716200  -1.16730600
H    0.40954700   0.92569000   0.13091400
H    2.91407000  -0.62796800  -0.46051600
H    2.66462600   1.70728100   1.14260400
H    2.57263700   2.19205400  -0.54159100
H    7.60784600   0.44650800  -0.41376400