17

C    1.33540300  -0.07097700  -0.26470700
C    2.83517200  -0.23796600  -0.42300200
N    3.51921500   1.04857200  -0.29064200
C    4.73441500   1.27010000   0.12779000
N    5.61394900   0.31616000   0.45536300
C    5.23017000   2.69829700   0.08245300
O    4.16749000   3.48495000  -0.32949100
H    0.84938100  -1.04868400  -0.37874400
H    0.92321700   0.59503200  -1.03714400
H    1.07670400   0.32624800   0.72660900
H    3.09004200  -0.65626600  -1.41015500
H    3.24560100  -0.92403000   0.33521000
H    3.04320000   1.90164200  -0.61339000
H    5.27399900  -0.45724000   1.04090300
H    6.08521200   2.69983100  -0.62043300
H    5.62351500   2.95648100   1.08301700
H    4.33510300   4.42050100  -0.17646700