10

O    2.40394100  -1.11374400   0.09981600
C    2.10722700   0.06219200   0.00895500
C    2.99537800   1.18692400  -0.00395700
N    2.38265700   2.36664900  -0.11494400
O    3.34367200   3.25335700  -0.10867600
C    4.55706000   2.67208900   0.00353100
C    4.41193100   1.32298700   0.07708900
H    1.00444500   0.27261600  -0.07349000
H    5.41118700   3.34638900   0.01608400
H    5.17964000   0.55931600   0.17235300