13

N    2.36354000  -0.41884800  -1.20032800
C    2.62164300  -0.23700500   0.20012700
C    3.04424300   1.20217600   0.14088600
C    2.19682500   2.30699200  -0.04831200
C    2.95722100   3.49231100  -0.12722600
N    4.26532900   3.33713700  -0.02933200
S    4.67987400   1.75644200   0.14796700
H    1.44344700  -0.23524900  -1.59963300
H    3.13467000  -0.52427200  -1.85932400
H    3.41384400  -0.91011200   0.55365800
H    1.71406900  -0.39482200   0.79488600
H    1.10767700   2.25691600  -0.09182000
H    2.55220400   4.49926800  -0.24924900