18

C    0.95351800  -0.11515500   0.21612000
C    2.40773600   0.15840500  -0.05203200
C    3.16390500   1.20186500   0.79618200
C    4.06661000   0.02584100   1.11602300
C    5.57826300   0.07873000   0.21316600
N    6.44247000   0.99858700   0.71677200
O    3.27694700  -0.88529300   0.51366600
H    0.63671600  -1.03331700  -0.29678400
H    0.35412300   0.72073500  -0.17278100
H    0.76031100  -0.22032800   1.29267900
H    2.61031300   0.22830600  -1.13343100
H    2.59741000   1.54308400   1.67469400
H    3.59399800   2.06995800   0.28033200
H    4.42561200  -0.24501300   2.12044400
H    5.21965100   0.31811500  -0.79584500
H    5.91296500  -0.95963000   0.32637700
H    6.41768900   1.97117500   0.42375900
H    7.07690900   0.77182000   1.47803500