15

C    1.94885200  -0.06480500  -0.03493000
C    0.84709500  -1.05674600   0.29837800
C   -0.37355500  -1.46457300  -0.47780100
C   -1.50179900  -0.45107700  -0.26290500
C   -1.34192500   0.79852500   0.19167700
O   -0.04454600   1.26992800   0.46385600
C    0.80005100   0.75900800  -0.38496200
H    2.56690500  -0.29526300  -0.91165300
H    2.52549500   0.19544500   0.85831100
H    0.71570300  -1.15635200   1.38408900
H   -0.71341300  -2.43581200  -0.08587300
H   -0.17695400  -1.60043000  -1.55416400
H   -2.52282800  -0.78855100  -0.45628500
H   -2.12015800   1.52182400   0.42996400
H    0.47140600   0.74935100  -1.43349100