20

C    0.84896700   0.01616000   0.30645700
C    2.33736200  -0.13198600   0.03519400
N    3.20288200   0.87263800   0.60086200
C    4.14469700  -0.04925300   1.18998100
C    5.57180300   0.04979000   0.65046200
C    3.20520900  -1.21169300   0.74566400
C    3.76278700  -2.34439800  -0.08975600
H    0.33576100  -0.85939800  -0.11408800
H    0.43831700   0.91425800  -0.17573400
H    0.64752700   0.05503200   1.38577200
H    2.51426900  -0.13838700  -1.06407100
H    3.12303800   1.89478100   0.65045700
H    4.17039200   0.12013000   2.28567000
H    5.59548200  -0.04396100  -0.44291000
H    6.15688100  -0.77023900   1.08807000
H    6.03828200   0.99988500   0.94425700
H    2.66220900  -1.60559400   1.61784200
H    4.29075400  -1.98336000  -0.98411100
H    2.94942000  -3.00566000  -0.42089500
H    4.46172400  -2.95447200   0.49938500