15

C    2.35108500  -0.24280700  -1.77638000
O    2.33562100   0.17323000  -0.41269400
C    2.98730800   1.27944100  -0.07087600
O    2.87887600   1.55123200   1.25705200
C    2.95192700   2.94111700   1.46799500
C    2.99323300   3.56017700   0.12411500
C    2.96277000   2.58859900  -0.81547200
H    1.86140500  -1.22076400  -1.79886600
H    3.38344200  -0.34021900  -2.14693900
H    1.78600400   0.47248700  -2.39467400
H    4.13072900   1.09377400  -0.25006100
H    3.82001500   3.18446300   2.11191800
H    2.05358300   3.25450300   2.04020400
H    2.99160600   4.63711900  -0.05469800
H    3.04430000   2.68151800  -1.89839100