17

O    1.01257300   0.07665200  -0.01724900
C    2.40514600   0.05314800  -0.02382800
C    2.84801500  -1.35959600  -0.46862200
C    2.54344800  -1.49043500  -1.98938100
C    3.01011400  -0.21273400  -2.58038500
C    2.25079700   1.05094000  -2.37718400
C    2.98586800   0.93337600  -1.10182600
H    0.68488100   0.78509400   0.54733000
H    2.84928200   0.30046300   0.95387400
H    2.28278800  -2.10511400   0.10974600
H    3.92146100  -1.49931200  -0.27945800
H    3.06025300  -2.35261100  -2.42727700
H    1.45654500  -1.60464100  -2.12678000
H    3.97082500  -0.16218100  -3.10513700
H    2.56836800   1.87390700  -3.02656400
H    1.16929300   0.91163300  -2.26042400
H    3.97749800   1.38286200  -0.97917700