14

O    2.19596700   0.11202200   1.45708400
C    2.43505800   1.06842900   2.12642500
O    3.51145100   1.86478700   1.89923800
C    4.23209800   1.54494400   0.75375100
C    5.61005400   2.23560500   0.70844300
N    6.20891900   0.93676200   0.55082000
C    4.99207600   0.19234200   0.73951800
H    1.86711600   1.43627600   2.99877500
H    3.63494300   1.68740000  -0.15999600
H    5.90621400   2.70860100   1.66639200
H    5.85164300   2.93497000  -0.11081400
H    7.14876300   0.65136500   0.25069500
H    4.78849200  -0.54161100  -0.05985600
H    4.99617400  -0.35568800   1.70302100