18

C    1.95741600  -0.37099700  -0.85709200
N    2.47470400   0.89312400  -0.43740300
C    3.40216300   1.08066000   0.61889400
C    4.87554100   0.98305400   0.09528300
C    5.86268500   0.92076000   1.28132000
O    5.98336500  -0.48430800   1.13452200
C    5.38252700  -0.44683100  -0.14841300
H    2.52909100  -0.72626700  -1.73912700
H    0.91116800  -0.25539000  -1.18090900
H    2.03782600  -1.10716300  -0.04891200
H    2.26479000   1.70207900  -1.02924100
H    3.25197000   0.30600700   1.38559900
H    3.25801200   2.08388500   1.04748100
H    5.05994800   1.73739900  -0.68189600
H    5.50626500   1.22093300   2.27896800
H    6.80028800   1.45818500   1.05429400
H    6.12046800  -0.49733100  -0.96883300
H    4.64761400  -1.25755000  -0.29152600