13

N    1.67458800  -0.73336000   1.05999700
C    2.53252700  -0.41435600   0.13522700
N    2.92747700  -1.23373600  -0.81293200
C    3.14215300   1.02022600   0.23385500
O    2.85826900   1.53344300   1.48411500
C    4.55033300   1.02725700  -0.14970400
C    5.72074800   1.05862700  -0.44288500
H    1.51495700  -0.04666000   1.80104300
H    1.17781200  -1.62178700   1.06059300
H    3.01466600  -0.91349300  -1.78351900
H    2.54896500   1.58224200  -0.51728400
H    3.66543800   1.61068600   2.01038400
H    6.76540100   1.08942100  -0.70775100