14

C    1.04971900   0.10750500  -0.65187300
O    2.46299400   0.23463200  -0.37634900
C    3.04359000   1.35064300  -0.15709600
C    2.31970200   2.63980000  -0.16335100
C    4.44851800   1.21719600   0.09073400
C    5.25217500   2.32449200   0.35051200
N    5.91781700   3.25969400   0.56749500
H    0.87936500  -0.96344100  -0.78951100
H    0.80756400   0.66195500  -1.56821800
H    0.47744900   0.48655400   0.20518400
H    1.51471100   2.61946000   0.59052900
H    1.83906900   2.79285600  -1.14437500
H    2.98640300   3.48379700   0.04556400
H    4.89282000   0.21635700   0.07355400