19

C    0.99892300  -0.04874400   0.08320000
C    2.42606300   0.00817900  -0.01734800
C    3.67201900   0.05714000  -0.10174300
C    5.09947000   0.06969100  -0.12201700
C    5.40189300  -0.70448300   1.24633700
C    5.67552200  -0.73911800  -1.29706000
C    5.67373400   1.49417300  -0.03296000
H    0.55855200   0.95899900   0.13228600
H    0.75394300  -0.55890300   1.03774700
H    0.55903600  -0.64514500  -0.73032700
H    5.01398800  -0.16048900   2.11671500
H    6.50113500  -0.73158600   1.29583600
H    5.01525800  -1.73119000   1.22775200
H    5.45918300  -0.23610800  -2.24977800
H    5.26728500  -1.75832900  -1.33240100
H    6.76631400  -0.80254900  -1.18096200
H    5.45732200   2.05185200  -0.95473000
H    6.76453300   1.42859100   0.08188300
H    5.26425700   2.04853200   0.82244300