15

C    0.79008800   2.05320300  -0.61027000
N    2.11590600   1.67821300  -0.23804100
C    3.06552100   2.55723400  -0.28751100
C    4.37285300   2.14820800   0.08794900
C    5.45932800   3.03199300   0.07228800
N    6.66983100   2.66875000   0.43599600
O    7.69589100   3.50913500   0.24072600
H    0.12109400   1.83344100   0.23886500
H    0.45789800   1.37885400  -1.41764000
H    0.67235700   3.10497400  -0.92299000
H    2.89770900   3.60176200  -0.60933000
H    4.49809900   1.10507200   0.39706400
H    5.36559500   4.07670400  -0.24240100
H    6.89865700   1.70268500   0.69003100
H    8.26463100   3.48376900   1.02832500