15

C    0.98605400  -0.03842100   0.39232600
C    2.43939900  -0.00834000  -0.04643100
C    2.80861400   1.23731300  -0.83975700
O    4.12563700   1.09297900  -1.40976000
C    4.51870900  -0.08054300  -1.77373100
N    3.81499400  -1.19515900  -1.65375800
N    2.75432900  -1.14574300  -0.91642800
H    0.78622500   0.80730100   1.06377600
H    0.76862000  -0.95878800   0.95239700
H    0.30377400   0.03091900  -0.46719800
H    3.10572500  -0.09140000   0.83234200
H    2.85032700   2.12696600  -0.20177800
H    2.11317200   1.41961600  -1.67381600
H    5.50448700  -0.12768100  -2.24454000
H    2.17586000  -1.98998100  -0.92097000