13

N    0.96993500   0.21114000  -1.01937400
C    2.06395700   0.16164800  -0.63492400
C    3.39871500   0.09840200  -0.16848800
C    4.35977000   0.97485200  -0.60460400
C    5.69847100   0.89802300  -0.11511900
C    6.83394600   0.90838800  -1.37637900
N    6.66732300   1.90181500  -0.42361900
H    3.62711400  -0.67559600   0.57328400
H    4.11559300   1.73707600  -1.35200300
H    5.91239000   0.23193000   0.72849000
H    6.30448000   1.00551100  -2.32894400
H    7.69723200   0.23318800  -1.33913000
H    7.42120900   1.96853000   0.26473600