19

C    3.23319300  -1.22280300   0.94475200
O    3.00434400  -0.38257800  -0.20456400
C    3.60295100   0.72740900  -0.41206400
C    4.57193900   1.32128400   0.41990500
C    5.21629600   2.61014100   0.10705800
C    4.90006300   3.62555100   1.22961300
C    6.74186000   2.39998400  -0.03097100
H    2.56753900  -2.08004700   0.81306100
H    2.97314300  -0.67175200   1.85839900
H    4.28169000  -1.54927700   0.95594900
H    3.28890200   1.21573400  -1.34296600
H    4.87016800   0.81352200   1.34558100
H    4.82018500   2.99569500  -0.84614900
H    5.29479000   3.28463000   2.19830800
H    3.82059900   3.80446900   1.32804300
H    5.38409100   4.58046600   0.98143200
H    7.17989600   2.03015200   0.90805700
H    7.20674800   3.36767100  -0.26588200
H    6.98706000   1.69738900  -0.83916700