17

C    0.98967700   0.12651700  -0.43526900
C    2.42555700  -0.01564100   0.09684700
C    2.74162100  -1.31451100   0.85898700
C    3.39665100  -0.86372500   2.12827800
C    3.92920500  -1.69235300   3.11599400
C    3.40405200   0.55050100   2.19240200
C    2.83642900   1.05293200   1.03530400
H    0.77784400  -0.68337600  -1.14579600
H    0.85697000   1.08226900  -0.96001600
H    0.25930500   0.07124000   0.38468800
H    3.10555100   0.07959000  -0.77692000
H    3.38631200  -2.01061900   0.29846900
H    1.82124700  -1.87772400   1.09374700
H    3.90779300  -2.78051300   3.01373800
H    4.38156300  -1.26896900   4.01655800
H    3.80047700   1.14236600   3.01891300
H    2.70963800   2.11834900   0.82156700