14

O    1.02146800   0.06022700   0.39164500
C    2.38734800   0.05302200   0.17978100
C    2.75292900   1.23887700  -0.76116900
O    4.16093000   1.07062300  -1.07148300
N    4.44180200  -0.00687700  -1.69531300
C    3.79227000  -1.10644000  -1.57964400
C    2.76292400  -1.26643800  -0.51188100
H    0.78783700   0.61417300   1.14516200
H    2.96680700   0.16942000   1.11146900
H    2.67696500   2.22188700  -0.28586200
H    2.16562800   1.19869900  -1.69143000
H    4.03632600  -1.89516100  -2.29935700
H    1.86604600  -1.66346800  -1.02350000
H    3.08072600  -2.04788400   0.19712500