21

C    1.28665700  -0.50014100   0.75295700
N    2.31447000  -0.47732600  -0.25608600
C    2.37929600  -1.54776300  -1.21756900
C    3.23093900   0.63361900  -0.33869800
C    4.67709100   0.22002600  -0.00181600
C    4.81843200  -0.36764600   1.40152200
N    6.20289400  -0.59805900   1.69303200
H    1.68450700  -0.11508500   1.70211000
H    0.89529300  -1.51663300   0.88020200
H    0.46269500   0.16522200   0.43318200
H    2.66045900  -2.48340300  -0.70416600
H    3.10969900  -1.32066900  -2.00169500
H    1.38107400  -1.69863500  -1.66070900
H    2.88099600   1.42057400   0.34285900
H    3.19685000   1.01793100  -1.37294600
H    5.30419300   1.11946600  -0.08846500
H    5.04712300  -0.49256700  -0.75712800
H    4.16600400  -1.27070800   1.48130000
H    4.42186300   0.35725900   2.13227400
H    6.58375100  -1.41410600   1.22236400
H    6.39964700  -0.67187200   2.68590400