16

C    1.24226700  -0.23475500  -0.38639400
C    2.75665300  -0.21921800  -0.16687800
C    3.14929300   1.12684900   0.47636700
C    4.68563500   1.10637900   0.65252500
C    5.61780600   1.49068100  -0.41125900
O    5.21077700   2.39203200   0.65184200
H    0.97128300  -1.20207300  -0.83832900
H    0.91717600   0.55941100  -1.07339200
H    0.69391500  -0.13071300   0.55985500
H    3.27647900  -0.35398600  -1.12805100
H    3.06812000  -1.04246000   0.49454500
H    2.68698500   1.26346900   1.46367200
H    2.87067000   1.97576800  -0.16482800
H    5.02437400   0.47470800   1.49178000
H    5.26909200   1.82171300  -1.39629000
H    6.67669300   1.21694100  -0.32636400