11

O    1.45071100   0.18177800  -1.17726600
C    1.91276800   0.34667700  -0.09687200
C    1.45297800  -0.28827300   1.12517800
N    1.11608500  -0.77187800   2.11965000
C    3.12041300   1.32978200   0.12550500
C    3.62429800   1.91137300  -1.20009300
N    2.91333200   2.65779100  -0.25196200
H    3.71517700   1.14956000   1.03013500
H    3.02059900   1.51074600  -2.03922100
H    4.65956200   2.20101800  -1.41424800
H    3.09906500   3.54336200   0.23487300