17

C    1.07680500  -0.26754700   0.60393300
C    2.54082500  -0.25080400   0.42671300
C    3.29680100   0.89575200   0.32230100
C    4.70003700   0.94424400   0.15244200
C    5.60943700  -0.23898200   0.05633400
N    5.16622800   2.20700700   0.08175000
N    6.41627100   2.41121700  -0.07120600
H    0.82254100  -0.81997300   1.52523100
H    0.61176200  -0.84211100  -0.21591000
H    0.63548500   0.73576600   0.64473200
H    3.03663300  -1.22670200   0.37799800
H    2.80007100   1.86920900   0.37112600
H    5.06963700  -1.18754200   0.13179200
H    6.35706700  -0.22408700   0.86709900
H    6.14357200  -0.24394500  -0.90864400
H    6.72203500   3.38237200  -0.11935700
H    7.11919600   1.66950100  -0.14718600