17

C    2.18777600  -0.66469800  -0.31790300
C    3.23033700  -0.49573600   0.78070200
N    3.67985900   0.87590300   0.92428900
C    5.00463400   1.27417700   0.95878200
C    5.65510400   1.60676900  -0.52088900
N    4.78407700   1.75894800  -1.51818500
O    6.84189200   1.69875600  -0.54953900
H    1.84470900  -1.70774800  -0.32775300
H    2.61006500  -0.44282100  -1.30858500
H    1.30619500  -0.02945600  -0.14536400
H    4.11595300  -1.12319600   0.60742700
H    2.80326100  -0.79601900   1.75617400
H    2.95586000   1.59177200   1.01058100
H    5.66752900   0.48511700   1.33799400
H    5.14671700   2.21844000   1.50383600
H    3.78497600   1.68530000  -1.37875800
H    5.13553100   2.00613700  -2.43960700