15

C    1.10722900  -0.17601400   0.60345900
C    2.41255400  -0.00831100  -0.11935800
C    2.97043200  -1.05581200  -0.82442800
C    3.12065000   1.25181100  -0.09778000
C    2.61037400   2.35336300   0.59802800
C    4.35716400   1.43083600  -0.77561000
C    5.41330600   1.63359600  -1.33678800
H    0.34537300   0.52021100   0.22095300
H    1.22162200   0.00280600   1.68347300
H    0.72074600  -1.19388300   0.47508100
H    2.47092100  -2.02705100  -0.86880300
H    3.92001600  -0.94793000  -1.35517100
H    1.66672800   2.29743100   1.14501400
H    3.15443100   3.30112200   0.60637600
H    6.35271800   1.81385100  -1.83602700