14

C    0.28738500   0.05112200  -0.08089700
C    1.38933800  -0.15779000   0.93257800
O    2.45224800   0.82815700   0.70246100
N    3.41922600   0.40987000  -0.02000100
C    4.32875500   1.37244000  -0.20788000
C    5.44197800   1.07680000  -0.97163200
C    6.44130800   0.84970600  -1.64332900
H   -0.51934600  -0.65889800   0.15016500
H    0.64343400  -0.15226100  -1.10027500
H   -0.12503800   1.06742100  -0.02570500
H    1.86201800  -1.14632000   0.86869900
H    1.07054600   0.06172200   1.95928500
H    4.18797800   2.36749200   0.23948100
H    7.32153500   0.64313700  -2.23700900