15

C    0.68524000  -0.13255300  -0.18522400
C    2.06064700  -0.63284500  -0.01872600
C    3.04812500  -0.76003700  -1.11652200
C    3.43614800   0.54066000  -0.53913200
O    4.44099200   0.58483600   0.29848900
C    4.74440400   1.83774600   0.92140600
O    4.07071900   2.78501000   0.76090500
H    0.37485900   0.50855500   0.65373100
H    0.02038100  -1.01887900  -0.14823500
H    0.51664400   0.37348900  -1.14480400
H    2.35805900  -1.03042300   0.95881200
H    2.62739300  -0.68391300  -2.12664100
H    3.80649000  -1.53991200  -0.98432800
H    2.97274600   1.49189400  -0.83192000
H    5.65956600   1.70341100   1.52000800