15

C    0.99824100  -0.00672000   0.14458100
C    2.46048300   0.03237900  -0.03405100
C    3.31459700  -1.06832400  -0.17210900
N    4.58153300  -0.66780000  -0.31574800
C    4.70633500   0.75539500  -0.28770900
N    5.75086600   1.44418000  -0.39552500
C    3.29759000   1.26395400  -0.09869500
H    0.60234700  -1.02923400   0.15658800
H    0.50565200   0.56334200  -0.66140600
H    0.72141700   0.49948500   1.08514400
H    3.04728400  -2.12619500  -0.17157500
H    5.37077900  -1.30238700  -0.43182700
H    6.61809100   0.91632400  -0.51847900
H    3.00090300   1.92917200  -0.92892100
H    3.21596600   1.87434600   0.81821300