12

C    3.06647900  -1.19378800   0.55418700
O    2.42366100   0.07915500   0.29990900
C    3.10162700   1.15263900   0.15707000
C    2.52535200   2.43396500  -0.09472900
O    3.47279800   3.29896700  -0.18628700
N    4.73490400   2.68941500  -0.00852800
C    4.52125600   1.43308600   0.19266500
H    2.25336900  -1.92033900   0.63010100
H    3.62220200  -1.12948900   1.49948400
H    3.72716100  -1.43391100  -0.28984400
H    1.48846500   2.75759300  -0.21063100
H    5.36375100   0.75981600   0.35664200