13

C    0.95164900   0.02743400  -0.00845100
N    2.41104300  -0.06581900  -0.00008700
C    3.30297900   1.01176800   0.00282000
N    4.55070900   0.64488700   0.00907700
C    4.52300400  -0.69826500   0.01047500
O    5.61359800  -1.38707100   0.01642500
C    3.14962700  -1.17282900   0.00463200
H    0.67043600   1.08629100   0.00326200
H    0.54324400  -0.46521900   0.88301600
H    0.55467400  -0.44261500  -0.91721900
H    2.94028300   2.04198800  -0.00001900
H    5.48161900  -2.34705400   0.01694000
H    2.73769100  -2.18204400   0.00396800