15

N    3.20293500  -1.11404800  -0.22610700
C    2.53683000  -0.02239700   0.17140300
O    1.47725800   0.07086900   0.72273400
N    3.22321900   1.22709700  -0.12126600
C    2.76616400   2.55838100   0.17887100
C    4.05410200   3.12041100  -0.45727300
C    4.46356800   1.65990400  -0.73940600
H    4.10208900  -1.09882100  -0.68948100
H    2.77321500  -2.01721100  -0.04887200
H    2.60545500   2.69718800   1.26536700
H    1.79526000   2.77346700  -0.30761200
H    3.89458900   3.73024600  -1.35396900
H    4.71429700   3.65252500   0.23728200
H    4.52727900   1.34079600  -1.79633900
H    5.34719000   1.26335600  -0.20560000