13

C   -0.83010300  -1.02834400  -0.19302500
C   -1.23283500   0.38683200   0.24386200
C   -0.00957200   1.20127300  -0.14108900
O    1.08812000   0.32431600  -0.11033000
C    0.67436200  -1.01254500   0.01715900
H   -1.31869800  -1.81830500   0.39004500
H   -1.05310300  -1.20521200  -1.25669200
H   -1.39044100   0.44787400   1.33189700
H   -2.14178300   0.75140300  -0.24973200
H   -0.01963200   1.56367100  -1.20132100
H    0.27325600   2.09200900   0.44951400
H    1.33275100  -1.61693200  -0.63359500
H    0.99104800  -1.28169900   1.05777600