16

C    0.88089100  -0.21942900  -0.02784100
C    2.30023800  -0.52104600  -0.27683300
N    2.78280400  -0.82304000  -1.44060700
C    3.17950100   2.04280600   0.17906500
O    2.49387400   2.31983100   1.29346200
C    4.49566800   1.59493400   0.17663200
C    5.63216300   1.13986300   0.17188200
H    0.80230900   0.62775500   0.67008300
H    0.43691300  -1.08985400   0.48692200
H    0.31478300  -0.01709800  -0.94634900
H    2.98601100  -0.63109600   0.56902100
H    2.21313600  -0.78097600  -2.28454500
H    3.76866900  -1.05209800  -1.55619100
H    2.67317500   2.35764100  -0.73667400
H    3.05005700   2.22720700   2.07922500
H    6.66368200   0.82896800   0.17593800