13

C    0.95662300  -0.01207300  -0.00124600
C    2.44552800   0.01345400   0.00301500
C    3.28779600   1.12041900  -0.00202000
C    4.66748900   0.76438200   0.00138900
N    5.76967100   1.45049600  -0.00074300
S    4.82418700  -0.99626200   0.01115100
N    3.15602000  -1.13563200   0.00958400
H    0.55955700   1.00888600   0.01860000
H    0.57543300  -0.55293600   0.87792000
H    0.58236900  -0.51450500  -0.90609800
H    2.94097300   2.15345900  -0.00770600
H    5.60025600   2.46222000  -0.00697000
H    2.72170600  -2.06003000   0.01464400