11

O    0.92832800   0.05735200  -0.43457500
C    2.10889700   0.10509300  -0.05236800
C    2.91786600   1.21547900  -0.06076100
C    3.64975500   2.19894200  -0.03199000
C    4.50006100   3.33979700   0.01275200
C    4.59269900   4.20264400  -1.21733900
O    3.85952700   4.58523400  -0.10782500
H    2.47592700  -0.88608900   0.32018300
H    5.36394900   3.27374100   0.68567200
H    4.02360800   3.93733900  -2.11596300
H    5.56091900   4.69418800  -1.36869400