15

O    1.06117300   0.17813600  -0.74267500
C    2.29221500   0.04582400  -0.13461400
C    2.85561200  -1.24873300  -0.55451700
O    2.34777700  -1.86925100  -1.54695300
C    3.44560500   0.70134600  -0.85917500
C    4.64183800   1.08769100  -0.23805900
C    5.67193200   1.68576100  -0.92275500
H    0.72936100   1.08271100  -0.69695100
H    2.31473000   0.20757300   0.95624600
H    3.71944700  -1.71606400  -0.07229900
H    1.51342000  -1.42174700  -1.81655400
H    3.29632900   0.86381300  -1.93286300
H    4.74942300   0.92661500   0.84077000
H    5.60843600   1.86916500  -1.99898900
H    6.57909200   2.00671000  -0.40690600