17

C   -1.67380400   0.70566200   0.14757300
N   -1.54123600  -0.67257800  -0.38427800
C   -0.16785300  -0.76829700   0.03873200
C    1.18213200  -1.16984100  -0.50909700
N    1.94574100  -0.03204900   0.01211800
C    1.16513900   1.03073500   0.65386600
C   -0.15186500   0.77064200  -0.07708600
H   -2.32385500   1.36049400  -0.44613300
H   -2.00512000   0.68423700   1.19822200
H   -1.95780300  -1.01727500  -1.25246400
H   -0.20066100  -1.02176700   1.11726700
H    1.56578900  -2.12728400  -0.12316900
H    1.20198400  -1.21272800  -1.61235900
H    2.88750800  -0.19848100   0.34932600
H    1.01504700   0.87615500   1.74113300
H    1.63498800   2.01025800   0.49133400
H   -0.00541500   1.01997500  -1.13916200