12

C    0.96490400   0.02888400  -0.00880600
N    2.42939600   0.00738900  -0.00026800
C    3.23722800   1.06208200   0.00357700
C    4.60357300   0.74395900   0.00981300
S    4.89217400  -0.91758300   0.01044200
C    3.10490500  -1.24482400   0.00305800
O    2.58076400  -2.30599200  -0.00007400
H    0.62650300   1.07010700   0.00547000
H    0.59279200  -0.50361000   0.87609700
H    0.60292100  -0.47582900  -0.91409700
H    2.83307500   2.07612800   0.00183400
H    5.41217300   1.47719900   0.01372500