15

C   -1.43385200   0.65106200   0.14778900
C   -1.44654200  -0.82310900  -0.20723200
C   -0.29733000  -1.61188500   0.30653100
C    0.99211800  -1.14027500   0.48988100
C    1.49346100   0.11454400   0.10417200
C    0.81946300   1.19774100  -0.49003100
O   -0.43950100   1.41600800  -0.56728100
H   -2.37880500   1.13011400  -0.12759900
H   -1.25174600   0.81176100   1.22183500
H   -1.51287400  -0.95797700  -1.30476800
H   -2.38419800  -1.25106000   0.18114100
H   -0.47922000  -2.66670900   0.53515100
H    1.72614600  -1.84087700   0.89649900
H    2.57330300   0.26414500   0.18733300
H    1.40732900   1.99437800  -0.96116100