12

C    0.98931700  -1.07450700  -0.07235500
C   -0.44371900  -1.47437600  -0.12819500
C   -1.30647300  -0.39128900   0.02752000
C   -0.63510000   0.86846400  -0.01999600
O    0.36218300   1.03269900  -1.01370200
C    0.92944300   0.43104300   0.05443400
H    1.47325100  -1.56195900   0.79264700
H    1.55314500  -1.38258700  -0.97019600
H   -0.77594000  -2.51408100  -0.19480400
H   -2.36405300  -0.48391700   0.28891800
H   -1.04100800   1.79575200   0.39222400
H    1.56479300   1.02732100   0.72311500