19

C    1.01540900  -0.10145100  -0.04548000
C    2.48329800  -0.25359800  -0.09438200
C    3.26577800  -0.40899900  -1.34031000
C    3.37210800   1.02982600  -0.98669600
C    4.54395200   1.64081100  -0.30876400
C    5.33115100   1.98527900  -1.55978600
C    5.21726000   3.15734700  -2.20445700
H    0.70089800   0.60943200   0.73354400
H    0.60009000  -1.08348800   0.25507600
H    0.57575100   0.16910700  -1.01438700
H    3.00727800  -0.42489300   0.85212300
H    2.68490900  -0.63103000  -2.24191800
H    4.19555500  -0.97962300  -1.23299200
H    2.63764700   1.71338700  -1.42540300
H    5.09100600   0.93396700   0.32887500
H    4.27542600   2.53517400   0.26782400
H    5.97342700   1.19497100  -1.96086300
H    4.55457100   3.95255000  -1.84891900
H    5.81610000   3.36789100  -3.09384800