20

C    3.53366300  -1.18341900   0.22873200
C    2.62853200  -0.01009600   0.53643300
N    3.27819600   1.27642500   0.80409000
C    2.40588100   2.32835600   1.28670200
C    4.64214300   1.45955300   0.65667400
C    5.21561200   2.76968800   0.03549900
C    5.40805000   2.52199500   1.46884700
H    2.89786700  -2.06670100   0.08130500
H    4.21941300  -1.40977400   1.05769800
H    4.10808300  -1.04082700  -0.69740400
H    1.99877300  -0.21985800   1.41818700
H    1.92770500   0.17359700  -0.29822900
H    1.41081800   2.20894100   0.83979900
H    2.79548800   3.32161600   1.03674900
H    2.31007700   2.24560200   2.38261500
H    5.18301400   0.54909100   0.40601600
H    4.48661500   3.51616200  -0.28849300
H    6.03661000   2.59241100  -0.66298400
H    6.38085300   2.17852900   1.82892000
H    4.83047700   3.10415900   2.19050000