13

N    1.12965300  -0.08382600  -0.17724000
N    2.30106400   0.08388100   0.32813100
C    2.85423000   1.29282100   0.29521300
O    4.04474600   1.38468300   0.82700300
C    4.50808900   2.72801400   0.72014700
C    3.40515300   3.44490400   0.03506100
C    2.40873600   2.57287300  -0.21921200
H    0.74584900  -1.02700100  -0.12904600
H    0.56808900   0.65104600  -0.61605100
H    5.45488100   2.72662000   0.15391800
H    4.71960100   3.10599400   1.73475000
H    3.42707600   4.50770100  -0.20973300
H    1.46142900   2.78631200  -0.71102200