17

C    1.13454100   0.02722200  -0.35244700
N    2.53943200   0.04192800  -0.00387200
C    3.27463000  -1.17912200   0.29188100
C    4.66804500  -0.62283300   0.59157000
N    4.58398900   0.79731100   0.44185500
C    3.33746700   1.11809600   0.09953800
C    2.89305800   2.51509200  -0.13813700
H    0.98983300  -0.60025300  -1.24445700
H    0.77893500   1.04244400  -0.55409000
H    0.55985900  -0.40802100   0.47902200
H    3.23284900  -1.85406700  -0.57858700
H    2.80055500  -1.69803500   1.14102400
H    5.45664200  -1.00470200  -0.08199900
H    5.03158400  -0.85141100   1.60990000
H    2.08592900   2.79390700   0.55574100
H    2.52473700   2.64008100  -1.16746400
H    3.74562600   3.18445100   0.01886300