17

C    4.00362800  -1.36606600  -0.63518200
N    4.48440500  -0.36992100   0.30920000
N    4.29385600   0.90295100   0.08311900
C    5.08771600   1.83071200  -0.26073200
C    4.60355700   3.22920700  -0.44436900
C    4.94070200   3.71647000  -1.85884100
O    3.24975900   3.24689600  -0.14823200
H    4.47820900  -2.32265300  -0.38581100
H    4.27960300  -1.05943900  -1.65185300
H    2.90905000  -1.46618200  -0.56180300
H    4.52901000  -0.62074300   1.30168300
H    6.15298100   1.60450200  -0.42873100
H    5.20510900   3.82175000   0.28134400
H    4.39029200   3.12802000  -2.60629100
H    6.01869000   3.65962600  -2.06761100
H    4.64038100   4.76905500  -1.95584600
H    2.90725200   4.14232600  -0.23572000