19

C    0.87935800   0.04477700   0.50691500
C    2.11126900   0.38804700  -0.32293900
C    2.75065200   1.71910200  -0.06676300
C    1.98632300   2.87208600   0.11383900
C    4.23901700   1.82772600  -0.01760400
C    4.11999900   1.86008100   1.48327000
C    4.00855800   0.75223600   2.27163900
H    0.50122400  -0.94498200   0.21991500
H    0.05764400   0.75985200   0.36010500
H    1.12283600   0.01888300   1.58007900
H    1.84957100   0.42176000  -1.39986800
H    2.86952500  -0.40482500  -0.24968200
H    0.89692200   2.84410900   0.03320400
H    2.45393600   3.84262300   0.29919200
H    4.65409200   2.75594600  -0.42395200
H    4.75582900   0.94786100  -0.41509900
H    4.10338200   2.84769300   1.95412200
H    3.98255500  -0.25823500   1.85420700
H    3.97552900   0.84784100   3.35988400