17

C    1.08490000   0.08810500   0.36853600
N    2.47486700   0.04532600  -0.01257200
C    3.29546700   1.24262500  -0.13548800
C    4.54486300   0.76632600  -0.88287400
C    4.61872400  -0.73219500  -0.55907100
C    3.19086200  -1.09565200  -0.24555400
N    2.57263100  -2.23227600  -0.14807000
H    0.68476200  -0.93058300   0.40090700
H    0.53842600   0.70535500  -0.36115100
H    1.00397500   0.57047400   1.35589900
H    3.51086000   1.59766100   0.89044100
H    2.71942400   2.03374500  -0.63783300
H    4.41435100   0.92006200  -1.96335100
H    5.44017500   1.31735300  -0.57359900
H    5.01845000  -1.34696800  -1.37628200
H    5.23048400  -0.93763000   0.33569000
H    3.19810900  -3.02774800  -0.31204700