16

C    0.90635700  -0.01989800   0.23197800
C    2.36184500   0.00267100  -0.13870800
C    3.34025900   0.99285900   0.73544300
C    4.15937400  -0.01257400   1.53449800
C    3.36089100  -1.00143500   0.69466300
C    2.61723600   0.03426400  -1.55021200
N    2.82530700   0.05981500  -2.69076100
H    0.76793100  -0.04357000   1.32141000
H    0.41866400  -0.90076500  -0.21580100
H    0.40033600   0.86818800  -0.17973500
H    2.63097800   1.56874400   1.34758100
H    3.92971000   1.55845000   0.00150700
H    5.23517500   0.00251600   1.33936200
H    3.94676000  -0.03672700   2.60683900
H    3.96184400  -1.52432500  -0.06128300
H    2.66422700  -1.61649400   1.28271700