19

C    0.94061200  -0.03338000   0.02817100
C    2.42889500   0.04393400   0.21441000
C    2.99364800  -0.74973900   1.35867400
C    3.10601200  -0.83547500  -1.32965300
O    4.38308400  -1.00697300  -1.13420700
C    3.00984800   1.43511800   0.02343200
O    4.39578300   1.36317200  -0.19802800
H    0.59992300   0.40652600  -0.91960700
H    0.47275600   0.54723700   0.84386600
H    0.56769400  -1.06278900   0.11588700
H    2.53730500  -0.34912600   2.28164800
H    4.08243400  -0.65383700   1.44084300
H    2.71836400  -1.81205500   1.30262300
H    2.79532800  -0.05215300  -2.03913000
H    2.53623500  -1.77188100  -1.33787700
H    4.82797100  -0.12478900  -1.10066800
H    2.77923200   1.97685900   0.96253600
H    2.49179300   1.96043700  -0.79814400
H    4.80388500   2.23531400  -0.15385600