14

O    1.70118100  -0.15249200   1.02283400
C    2.48417400   0.01268600   0.14991200
N    2.99051400   1.34817500  -0.07031600
C    2.66758200   2.55931400   0.68211400
C    3.18332000   3.64684100  -0.26011300
C    4.28286600   2.93056300  -1.03032300
O    3.85694300   1.51962100  -1.01416200
H    2.91044200  -0.72298600  -0.55915000
H    3.20191200   2.50840100   1.64691600
H    1.58851300   2.57443400   0.88716900
H    2.38625300   3.98764100  -0.93476000
H    3.56877300   4.51543900   0.28721900
H    4.38337000   3.19342500  -2.08921900
H    5.26927300   2.94231700  -0.54283000