17

C    0.96020100  -0.05916700   0.05749900
C    2.42728700   0.12949000  -0.00980600
C    3.19516500   1.07729000   0.87193300
C    4.21050100   0.01642700   1.35817000
C    3.34728100  -1.18854200   1.03546500
C    3.74245800  -2.23270100   0.20530700
C    4.07504000  -3.13926200  -0.54903700
H    0.63022300  -0.98478800  -0.43264100
H    0.52935800   0.78248700  -0.52198900
H    0.56134200   0.00726500   1.07859800
H    2.87741300  -0.04334000  -0.99586300
H    2.57502600   1.46281000   1.69227000
H    3.64925500   1.91546700   0.32396600
H    5.13650600   0.01705800   0.77012500
H    4.44865300   0.08360400   2.42944500
H    2.56111100  -1.44127700   1.76042000
H    4.37405200  -3.94717000  -1.20014500