13

C    0.94913700   0.04093300  -0.00852900
N    2.40763300   0.04775200  -0.00149000
C    3.22141000   1.11791900   0.00467200
C    4.51779900   0.62682900   0.00938900
O    4.48992200  -0.69032000   0.00609400
C    3.18923200  -1.11524000  -0.00087000
N    2.90907600  -2.34257500  -0.00534700
H    0.59044800   1.07551700  -0.00106300
H    0.58039300  -0.47853300   0.88665300
H    0.58881900  -0.46299300  -0.91598700
H    2.86697600   2.14750600   0.00555800
H    5.48380200   1.12929900   0.01499400
H    1.91373100  -2.56927400  -0.01054600