16

C    0.93007600  -0.05674300   0.17540000
C    2.43190400   0.01112100  -0.10280500
N    3.20830000  -0.37135200   1.07643400
C    2.84739000  -0.81970700  -1.29612100
C    3.52789100  -0.35964900  -2.34285600
C    2.96376000   1.38161900  -0.08608100
C    3.45417600   2.49093400   0.05448900
H    0.39422600   0.36432800  -0.68484900
H    0.65721500   0.51850300   1.07178500
H    0.62346500  -1.10455000   0.30114900
H    2.84685200  -0.21907000   2.02184400
H    4.18979200  -0.64258200   0.97272200
H    2.51010700  -1.86040500  -1.25099000
H    3.86135400   0.67964600  -2.41397500
H    3.76527800  -1.01761100  -3.18130500
H    3.86768600   3.48408600   0.14707100