12

C    0.40664900   1.45217700   0.46430900
C    0.87144000   0.34313500  -0.47107400
N    0.82745700  -0.94019700   0.14062700
N   -0.35899900  -1.34639200   0.50276800
C   -1.22287200  -0.40717600   0.13636800
C   -0.57116500   0.74135500  -0.49022300
H    0.68981800   2.46911100   0.18525800
H    0.35387400   1.24513300   1.53676400
H    1.62111100   0.51992900  -1.24604000
H    1.63464000  -1.53163400   0.35532900
H   -2.28789400  -0.54511100   0.33253800
H   -1.04671900   1.32972800  -1.27835500