17

O    2.43231200  -0.67334200   1.02695200
C    2.31819500  -0.01771800  -0.20053500
C    2.85023000   1.38414700   0.06382700
O    2.43945400   1.87388400   1.23341000
C    4.59298700   1.20917900   0.10450200
C    5.18847200   2.45021700   0.49833900
C    5.85834700   3.26923200  -0.38019400
H    1.99226600  -1.52981800   1.01899500
H    1.26493000   0.10806400  -0.51783400
H    2.86672700  -0.51279600  -1.01816100
H    2.70423600   2.10351600  -0.75328600
H    2.24997100   1.11288300   1.81923900
H    4.85376300   0.86660500  -0.90507500
H    4.63076400   0.40957200   0.85958400
H    5.08667100   2.76316600   1.54286200
H    5.92471000   3.02802000  -1.44599000
H    6.36244000   4.17548900  -0.03443600