15

C    2.07205800  -0.02853300   0.46858100
C    2.10172300   1.26036500  -0.10785700
O    3.10844900   2.03188400  -0.14946400
C    4.42692900   1.70739300   0.40233600
C    5.34657400   2.87896500   0.15150400
C    6.71608800   2.55563200   0.71705000
O    6.94114700   1.50901100   1.26078300
H    1.13686000  -0.59324300   0.43793800
H    2.94523500  -0.48396600   0.94373300
H    1.20622300   1.68784000  -0.57660300
H    4.77975600   0.79314600  -0.09649700
H    4.29750100   1.50824300   1.47600800
H    4.96763400   3.79897500   0.62609900
H    5.44207800   3.09419100  -0.92545400
H    7.49370100   3.34331800   0.59743100