21

C    0.91683500  -0.04386200  -0.03345100
C    2.43866700  -0.13204400  -0.04806200
C    2.93516700  -0.86492100   1.26333200
C    2.95990900  -0.87698500  -1.27130800
C    3.12078900   1.20829000   0.16830600
C    2.71092100   2.24637000  -1.12547700
O    3.42585300   3.35693000  -0.96072400
H    0.52961800   0.41635400  -0.95752200
H    0.54421600   0.52634500   0.83078400
H    0.47801600  -1.05059000   0.01440800
H    2.57022100  -0.37291300   2.17418400
H    4.02886900  -0.95094900   1.29837000
H    2.50268900  -1.87641000   1.21076200
H    2.60256800  -0.41883000  -2.20842200
H    2.58546400  -1.91052400  -1.27441500
H    4.05901000  -0.91517000  -1.29403600
H    4.21765900   1.17220600   0.13027400
H    2.77439100   1.75439800   1.05745100
H    1.61954400   2.35855400  -1.04311300
H    3.06861200   1.68368400  -1.99839300
H    2.96834100   4.03175500  -0.43170700