13

C    0.83282300   0.00341200  -0.08462600
C    2.31612400  -0.05234400  -0.07921000
C    3.21975900   1.05869200   0.06791700
N    2.84534200   2.31724900   0.22295600
N    4.55024600   0.74818200   0.03998800
C    4.71293800  -0.51676000  -0.11759600
S    3.23683700  -1.47314000  -0.25004400
H    0.47490500   0.64632100  -0.90636900
H    0.46003800   0.42358100   0.86467700
H    0.38597200  -0.98968400  -0.21330400
H    3.56186200   3.03488500   0.31904200
H    1.87029200   2.59746400   0.25002400
H    5.69026000  -1.00589900  -0.17089600