15

C    0.92257100   0.04338200  -0.00907900
C    2.41311500  -0.04016200  -0.00020500
C    3.30175400   1.06811100   0.00443300
N    4.58756600   0.61407600   0.01195200
C    4.57066600  -0.75418600   0.01194900
N    5.66442100  -1.50153600   0.01760800
C    3.20440500  -1.17617700   0.00439300
H    0.57869000   1.08509000  -0.00091600
H    0.50132300  -0.46537800   0.87000000
H    0.51330200  -0.44711300  -0.90416700
H    3.07751900   2.13366500   0.00315200
H    5.41319800   1.20278800   0.01582200
H    5.58638800  -2.51265700   0.01797600
H    6.59859200  -1.10684400   0.02467800
H    2.87733100  -2.21418900   0.00321300