18

C    1.92713800   0.74842800  -2.88526500
C    3.18083300   0.85916000  -2.09727200
C    3.24882500   1.10621100  -0.77279900
C    4.54767500   1.21572500  -0.04989800
N    5.50642400   0.27525600  -0.46886300
C    5.20716600   2.62154700  -0.02784900
O    6.47429700   2.42300200   0.51187300
H    1.92245500   1.49141500  -3.69819500
H    1.03068100   0.88297400  -2.26623800
H    1.87511800  -0.23936300  -3.37211500
H    4.12041100   0.76317000  -2.66073300
H    2.33823900   1.26789100  -0.18919700
H    4.37202800   0.98207800   1.03564600
H    6.49566600   0.52658900  -0.35271800
H    5.24156800  -0.66499400  -0.76329700
H    4.56785600   3.29333200   0.56732600
H    5.23919800   2.99635800  -1.06691300
H    6.93894400   3.25644200   0.64202300