17

N    1.57488300  -0.15727500  -0.22895000
C    2.47256600   0.54929300  -1.11963300
C    3.11733000   1.70258500  -0.31394100
O    2.26808600   2.16210400   0.62496800
C    4.39955900   1.14284200   0.49170700
C    5.75781500   1.31192300  -0.18142600
N    5.31704500   2.05202400   0.95525500
H    1.92446000  -1.06094000   0.07881000
H    0.64884200  -0.30149900  -0.62284100
H    1.90332500   1.01643600  -1.93634600
H    3.24713500  -0.08302400  -1.58063600
H    3.50401500   2.52148200  -0.93983800
H    1.65415600   1.39092400   0.77836200
H    4.11725200   0.30371500   1.13971400
H    5.74572200   1.84514400  -1.13942500
H    6.56952400   0.59128900  -0.03994400
H    5.73282100   2.10704900   1.88674600