15

C    1.06003500  -0.24117100  -0.17669300
O    2.41975100   0.04991800   0.18249900
C    2.86941200   1.26874300  -0.08462800
O    2.70745700   2.25377700   1.01838900
C    2.60296500   1.79591900   2.34767400
C    4.32354100   1.40427500  -0.06815700
C    5.52690800   1.59174000   0.01202200
H    0.89949800  -1.29331800   0.07664500
H    0.91450200  -0.09449800  -1.25687500
H    0.36172700   0.38897800   0.39339900
H    2.40404400   1.77769400  -0.94735000
H    3.26452900   2.41431300   2.96972300
H    2.79705800   0.71833000   2.42757300
H    1.55900200   2.01625100   2.64813400
H    6.59717700   1.73612400   0.05826200