15

C    0.91169000   0.02097200   0.19424500
C    2.42165600  -0.10201100   0.05348800
N    3.22359500   0.85944600   0.77674500
C    4.08080500  -0.09943400   1.41277600
C    3.20514600  -1.22763000   0.80518000
C    3.87693100  -2.22175600  -0.01765100
N    4.41731000  -2.98838700  -0.69011200
H    0.45518200  -0.82887300  -0.33178400
H    0.54765800   0.94666900  -0.27231900
H    0.60612500  -0.00710300   1.24895000
H    2.70471900  -0.04508100  -1.02001400
H    3.15696200   1.88105400   0.86314100
H    5.12300100  -0.02987500   1.04356700
H    4.10742900   0.00539300   2.51271500
H    2.57929600  -1.72051100   1.56430000