15

C    1.45825700   0.84901200   0.44164000
C    2.87448800   0.52862400   0.26497400
N    3.75650400   1.50069500   0.10593100
N    5.01391700   1.22680300  -0.05227500
C    5.63761500  -0.08869800  -0.08326500
C    5.85366400   2.42856200  -0.21391900
O    7.01923100   2.32227800  -0.36593800
H    1.10277600   0.40915000   1.39158800
H    0.87006800   0.33649600  -0.34169200
H    1.27051000   1.92823400   0.42160800
H    3.18243900  -0.52790000   0.26790000
H    5.22328500  -0.67734300  -0.91522200
H    5.46433500  -0.60517000   0.87254100
H    6.71212700   0.06387000  -0.23428600
H    5.23279300   3.34356300  -0.16655700