14

N    0.00123100   1.47060300   0.31410000
C    0.95586700   0.54621700   0.29948000
O    0.93148800  -0.46115100  -0.39549000
C    2.18485700   0.81448800   1.19534900
O    2.65173100  -0.41228100   1.71419400
C    3.02035200  -1.38001800   0.93504400
C    3.24104700  -1.28758400  -0.43118600
H    0.01256500   2.26293500   0.94459500
H   -0.79889000   1.35918700  -0.30267200
H    1.95066600   1.43814900   2.06543500
H    2.95831200   1.31635900   0.59009100
H    3.14598200  -2.32396100   1.47612200
H    3.34479900  -0.34104800  -0.96252700
H    3.39091300  -2.20857500  -0.99827800