16

C    1.80742500  -0.42761200  -1.19643200
C    2.97529500  -0.06939000  -0.28577300
C    3.25198100   1.37734100  -0.16423700
C    2.59558300   2.50432900  -0.76921700
C    3.23110700   3.64201000  -0.33856100
C    4.28136400   3.22734000   0.53274300
N    4.26235400   1.87578900   0.61155100
H    1.68086100  -1.51711100  -1.22201200
H    1.98142800  -0.08942200  -2.22768900
H    0.86525200   0.00752000  -0.83433900
H    3.90860700  -0.55625600  -0.62819000
H    2.81542200  -0.46199400   0.73678700
H    1.74643200   2.43220800  -1.44534300
H    3.00196200   4.67454200  -0.59423100
H    5.01236700   3.82489400   1.07756800
H    4.90281200   1.31284100   1.16476700