11

C    1.01166500  -0.02749100  -0.11182800
C    2.37580700  -0.03799500   0.09867900
N    3.11313900  -1.13955600   0.29061300
C    4.38828000  -0.71901800   0.45653000
N    4.54661200   0.59073300   0.38747900
C    3.25890500   1.19087800   0.14692700
O    3.02809700   2.34553100   0.02909200
H    0.48225900   0.91791400  -0.26061900
H    0.46127200  -0.97234000  -0.12909900
H    5.21748000  -1.41036400   0.63326400
H    5.42001200   1.11036700   0.48461200