10

O    1.20356800   0.18174200   0.34440400
C    2.29954400  -0.03703300   0.04714900
C    3.19401800  -1.24617700  -0.06234200
C    4.48815400  -0.70842500  -0.51626300
C    4.35994100   0.69475700  -0.65948000
O    3.19777300   1.13206100  -0.37075600
H    2.75841400  -1.98429100  -0.76307300
H    3.25606300  -1.76782400   0.91214400
H    5.39810200  -1.27847500  -0.71292600
H    5.12159800   1.41457400  -0.97874500