11

O    1.05110400  -0.02590200   0.54738700
C    2.20733800   0.18762700   0.22850400
N    2.91605400   1.35014000   0.32273700
C    4.11563300   1.05321400  -0.11521100
N    4.28530900  -0.19384300  -0.65319400
C    4.33583000  -1.33190100   0.27119000
C    3.06695600  -0.90156000  -0.42553200
H    4.95660600   1.74967900  -0.01991200
H    4.82810300  -2.23051800  -0.10986400
H    4.46014000  -1.11261200   1.33802100
H    2.58443300  -1.51008300  -1.19832700