17

C    2.58254400  -1.41080300  -0.53889700
C    2.35949000  -0.24812400   0.44707400
C    3.48727800   0.72232000   0.37446300
N    4.44425800   0.66834400   1.24855800
C    3.51853700   1.77173300  -0.69347900
C    2.62811800   2.87088100  -0.19715100
H    1.73235000  -2.10121900  -0.46841700
H    3.49751100  -1.97091200  -0.30113700
H    2.64494000  -1.06096100  -1.57877200
H    2.25373500  -0.63193700   1.47294200
H    1.43067300   0.28305400   0.19303000
H    4.41482700   0.01375800   2.02892600
H    5.25699700   1.28025100   1.19300200
H    3.13606300   1.34168800  -1.63034900
H    4.54829700   2.12547600  -0.86322500
H    3.00206800   3.58836000   0.53618500
H    1.58873700   2.94044600  -0.52288300