20

C    2.68303100  -0.36053700  -1.25624500
C    1.87159900   0.27086200  -0.11400900
N    2.42126400   1.54621600   0.27581900
C    2.10449300   2.79943100  -0.37626700
C    2.78470700   3.85937600   0.48948100
C    3.98110800   3.10740700   1.08506300
C    3.43000300   1.69939500   1.30200800
H    2.23379300  -1.33315800  -1.49646600
H    3.72779200  -0.52831400  -0.96069700
H    2.65606500   0.26269900  -2.16027700
H    1.88187900  -0.38162800   0.77129700
H    0.82964100   0.43221200  -0.42669500
H    1.01297600   2.89294000  -0.49354000
H    2.53077900   2.75127700  -1.39936900
H    3.07491100   4.74231600  -0.09251100
H    2.09677200   4.19278700   1.28101200
H    4.81867500   3.07436700   0.37186000
H    4.35289300   3.55275200   2.01564800
H    4.15702800   0.87360600   1.23902400
H    2.91293900   1.59186000   2.27785100