21

C    1.17284300   2.11026500   1.05478400
N    2.62522100   1.81732200   1.06067600
C    3.16440200   1.08232700  -0.12379800
C    4.67711500   1.30493700  -0.19097000
C    5.26100500   0.64106000  -1.44434700
C    4.95195200   2.78829600  -0.10576300
N    6.18915100   3.19224500   0.32437700
H    0.90654400   2.64044700   1.97662000
H    0.61456200   1.16868300   0.98915600
H    0.94377100   2.73821800   0.18595600
H    2.88075000   1.31349300   1.91705500
H    2.67027600   1.50647800  -1.01078300
H    2.88566100   0.02291600  -0.04437400
H    5.13051800   0.81744700   0.69419900
H    4.83304900   1.08161100  -2.35762800
H    5.06689000  -0.44217100  -1.45603900
H    6.34770300   0.79422700  -1.47512700
H    3.21193000   2.69111500   1.07051100
H    4.53008100   3.41199100  -0.90589000
H    6.67850000   2.66538700   1.03793900
H    6.45000600   4.16742200   0.25366600