12

C    0.94629500  -0.07406600  -0.13350000
C    2.68649800  -0.02037600   0.12748600
O    2.92129200  -0.65766700   1.28549100
C    3.02933500  -0.76438100  -1.04083600
C    3.25612600  -1.40435500  -2.06144000
C    3.01404900   1.40397900   0.07846400
N    3.25560000   2.53348000   0.09325800
H    0.72593400   0.41051800  -1.08995900
H    0.61988600   0.50868300   0.73726900
H    0.66015300  -1.12945800  -0.07846100
H    2.94533400  -0.05293500   2.04520700
H    3.48848800  -1.96434000  -2.95886800