12

O    3.01326500  -0.81649700  -0.76751400
C    2.19139400   0.03473300  -0.08368200
C    2.80010700   1.35722100   0.08072100
N    2.11178800   2.31510300   0.73700100
S    2.96249600   3.66251000   0.79491500
C    4.35943500   3.04057600  -0.08353700
C    4.11384500   1.75385300  -0.40833100
H    2.60719200  -1.68421900  -0.87334900
H    1.91036600  -0.30908100   0.94470800
H    1.19268500   0.20753900  -0.56039400
H    5.23625200   3.65746100  -0.28907800
H    4.77646100   1.08257800  -0.95415900