19

N    1.16969600   0.20279000  -0.48931000
C    2.48390900   0.25341500  -0.19855300
C    2.96388700   1.18460500   0.88550700
C    4.33805300   0.70953600   1.38065800
C    4.47318900  -0.79752100   1.08593500
C    3.12897100  -1.37063900   0.70803000
N    3.08257500  -2.46514100  -0.07557800
H    0.83208900  -0.16662300  -1.36999200
H    0.47101900   0.50693300   0.18043500
H    3.13029100   0.15152400  -1.08014100
H    2.22428300   1.18753500   1.70307900
H    2.99637200   2.21137200   0.48871400
H    5.14268800   1.26031700   0.87598300
H    4.44677200   0.91975500   2.45216600
H    5.18078900  -0.97852500   0.26102800
H    4.85722900  -1.35914700   1.95192700
H    2.35461500  -1.36112400   1.48594100
H    3.86146300  -2.71616600  -0.67521000
H    2.25942900  -3.05378600  -0.12088200