16

C    1.00537900   0.01141300   0.01799600
C    2.46917300   0.02769200  -0.03895800
C    3.34657300  -1.06492100  -0.06095700
O    4.58776200  -0.73057500  -0.18036100
C    4.71863400   0.70372000  -0.36980200
C    3.31538200   1.27861700  -0.04867100
N    2.78254800   2.33064900  -0.84698200
H    0.57835700  -0.99425300  -0.07062700
H    0.60751900   0.67725800  -0.76573400
H    0.67654200   0.46734300   0.97034900
H    3.12510300  -2.13259000   0.01960200
H    5.00015700   0.85565200  -1.42242600
H    5.53668600   1.03644600   0.27932400
H    3.31664800   1.62229500   1.00663100
H    2.89966400   2.20709400  -1.84843000
H    3.07594500   3.26019600  -0.56751400