14

O    1.43692900   0.26447100   0.98760900
C    2.39469700  -0.00197300   0.34364900
C    2.79949700  -1.35788900  -0.22673600
C    4.19609500  -1.14305800  -0.88193200
N    4.38717900   0.29258100  -0.84458300
C    3.69295600   1.27776300  -1.58804300
C    3.46532300   1.02810400  -0.07776600
H    2.04700700  -1.69508200  -0.95762500
H    2.82076100  -2.10496800   0.57933600
H    4.98855200  -1.59308700  -0.26202000
H    4.28958600  -1.50922800  -1.91158600
H    4.24202900   2.20165600  -1.80308800
H    2.99051300   0.93049700  -2.35531400
H    3.75352800   1.82746600   0.61516300