15

C    1.11671700  -0.34937700  -0.00917000
C    2.55863600  -0.07073200   0.10205100
C    3.11525200   1.28672600   0.01397900
C    4.62849700   1.42130600  -0.17485400
C    5.04176600   2.82232300  -0.11407200
N    5.32884700   3.93850100  -0.05912900
H    0.82410000  -1.31469700   0.42543500
H    0.85364400  -0.41090300  -1.09513200
H    0.49509000   0.47791500   0.37263200
H    3.21131200  -0.86956500  -0.43319000
H    3.06397800  -0.69667500   0.94837600
H    2.80177700   1.81314800   0.95687500
H    2.54077300   1.88469200  -0.72793700
H    4.92870700   1.01222000  -1.15359400
H    5.18019800   0.85853300   0.59624200