16

N    0.80659600   0.49451600  -0.31528200
C    2.09904800   0.50563200  -0.25226100
C    2.87850900   0.93140100   0.93198200
C    4.12215200   0.04577200   0.94685800
O    4.84457800   0.36743900  -0.20460000
C    3.63905600  -1.37796400   0.90864300
O    4.52020400  -2.24009500   0.40237000
H    0.31860200   0.23942500  -1.17228700
H    0.22733200   0.73890700   0.48693100
H    2.66007600   0.26154800  -1.16180500
H    2.29700600   0.85757300   1.86320400
H    3.17896100   1.98615900   0.79423700
H    4.71750700   0.24615000   1.86276100
H    5.52334700  -0.30197200  -0.35413700
H    2.90788800  -1.73826600   1.64326100
H    4.26096600  -3.15936500   0.53872100