13

C    0.99127500   0.03938200  -0.04974400
C    2.52012500   0.14141900  -0.27891800
O    2.97620800  -0.46838400  -1.42134700
C    2.99346400   1.49837900  -0.19858000
C    3.41975000   2.65534200  -0.05873800
C    3.87901800   3.90649100   0.07784600
C    4.30463600   5.05504400   0.19822900
H    0.69161400   0.54976600   0.87446500
H    0.72804500  -1.02358300   0.03727700
H    0.46667600   0.47567600  -0.90957300
H    2.99907200  -0.28660100   0.64957000
H    2.64827600  -1.37516200  -1.46483400
H    4.67869800   6.06517400   0.30330000