15

C    1.83113600  -0.69969000   0.31806200
C    3.31619700  -0.60142900   0.65515600
C    3.96061900   0.54183200  -0.13390200
C    5.41996000   0.68720800   0.15533000
O    6.21072200   0.16300400   0.82336900
C    6.13978600   2.06051300  -0.80744600
O    5.44327100   2.65102500  -1.51641200
H    1.38066000  -1.52254400   0.88971500
H    1.66937900  -0.90643800  -0.74999000
H    1.29288300   0.22317100   0.57933100
H    3.83011500  -1.54374600   0.41280700
H    3.45649400  -0.42285400   1.73183500
H    3.50950700   1.52768400   0.08297200
H    3.88135500   0.41261500  -1.22914100
H    7.22391400   2.14894800  -0.56646600