15

N    2.79472000  -1.06468600  -0.27250600
C    2.39339000   0.12342200   0.25517000
C    3.57367000   1.40134000   0.05906600
C    3.65431100   1.86202900  -1.37850000
C    2.74261700   3.04290900  -1.28983700
N    2.42017700   3.35073700  -0.09200200
O    3.05256700   2.44121600   0.75761700
H    2.64398300  -1.30036100  -1.24920800
H    3.30442800  -1.74666800   0.28317500
H    2.28729500   0.10521600   1.34612000
H    1.52835100   0.56859600  -0.25833900
H    4.46580200   1.00282300   0.55737700
H    3.37096300   1.12899100  -2.14616900
H    4.68314600   2.19262300  -1.61639200
H    2.36572300   3.64918700  -2.11586900