19

C    1.01287800   0.34003400   0.37322100
C    2.41064400  -0.07077800  -0.04717200
C    2.58308300  -0.56570100  -1.42945500
C    3.50256200  -1.52114600  -1.81207300
C    3.35700700   1.09329900  -0.36689600
C    4.18632300   1.65299700   0.86786100
C    4.88620000   1.04221800  -0.25901400
H    1.04739800   0.85541700   1.34257000
H    0.36966100  -0.54419200   0.47825500
H    0.55507700   1.01745300  -0.36245400
H    2.88605900  -0.73880500   0.68598600
H    1.95308900  -0.10260900  -2.19838000
H    4.21412900  -1.95005500  -1.10063300
H    3.51366800  -1.90342300  -2.83631700
H    2.93983300   1.86321100  -1.02149800
H    4.06998300   1.09659500   1.80012500
H    4.10770700   2.74069200   0.94730500
H    5.42117800   1.67830600  -0.96738000
H    5.32592700   0.05444500  -0.09726100