14

C    0.94411000  -0.03628400   0.00097200
C    2.36700900   0.03986100   0.00158300
C    3.61742500   0.08674800   0.00086300
C    5.04425500   0.10834800  -0.00002800
C    5.71134400   1.49566800   0.00213900
C    7.16626600   1.35515000   0.00032100
N    8.31063400   1.20736600  -0.00165200
H    0.46642300   0.95291000   0.01272000
H    0.61717000  -0.64197400   0.87011800
H    0.61958300  -0.61741700  -0.88612200
H    5.36944900  -0.51364100  -0.86502100
H    5.37086800  -0.51711100   0.86189400
H    5.40609900   2.06791400   0.89123900
H    5.40411700   2.07174800  -0.88380600