14

C    0.96418200   0.04417700   0.00176700
C    2.44545500   0.02891700   0.00393600
C    3.27238200  -1.11850200   0.00689700
C    4.70470000  -0.72565500   0.00865200
C    4.61856500   0.76235600   0.00645900
C    3.29385200   1.16693600   0.00369000
H    0.53786800  -0.96563900  -0.00056400
H    0.59546400   0.59266600  -0.88010500
H    0.59325200   0.58914200   0.88496600
H    2.90866000  -2.14887300   0.00771600
H    5.25253200  -1.12009500  -0.86756700
H    5.24971600  -1.11767000   0.88770800
H    5.48407300   1.42870500   0.00693000
H    2.95033200   2.20255500   0.00160500