12

N    1.29173600  -0.04388200   0.86182400
C    2.18224300  -0.09134600  -0.08535300
N    1.95350900  -0.76528800  -1.21184200
C    3.46274100   0.72259400   0.02856400
C    3.45798700   1.62059700   1.17269400
C    3.44975800   2.36159000   2.12649300
H    1.47227900   0.54758700   1.67712500
H    0.42132900  -0.56998700   0.80792400
H    2.64515000  -1.45371700  -1.53287000
H    3.60203200   1.27736000  -0.91463700
H    4.29438400  -0.00215800   0.09372000
H    3.46461100   3.03398900   2.96898600