14

O    1.09051100   0.92453200   0.12524100
C    2.39928800   0.28175900  -0.15740600
C    3.34962800   1.48317400  -0.08396000
C    2.66192100   2.43451600   0.85527700
C    1.23585500   2.09696500   1.04287400
C    4.68689800   1.07731700   0.36023900
N    5.73241300   0.74722000   0.71942200
H    0.35203900   0.31825000   0.31483500
H    2.30867000  -0.18137800  -1.14587300
H    2.59092800  -0.46320800   0.62711100
H    3.45388400   1.94333900  -1.08669500
H    3.13214700   3.31205900   1.29817000
H    0.51504200   2.84876000   0.68508700
H    0.96767300   1.76704900   2.06183700