13

C    2.05863900  -0.17799400  -0.09118800
C    0.67132700  -0.73941700   0.16674800
O   -0.46969900  -1.36549800  -0.46136100
C   -1.45838900  -0.53021100  -0.27641100
C   -1.32660300   0.79622200   0.25402700
O   -0.19713000   1.44045200   0.39033100
C    0.78354300   0.62332400  -0.28716100
H    2.61648600  -0.28803400  -1.02457100
H    2.66962800  -0.17330500   0.81500000
H    0.54094200  -0.86792200   1.24740200
H   -2.44954800  -0.91673000  -0.53153400
H   -2.22005700   1.35298200   0.55174200
H    0.62852100   0.77760200  -1.36117200