16

C    1.03756400  -0.05697700  -0.35415600
N    2.36144000   0.24053600   0.09302300
C    3.00224800   1.54286700   0.00104900
C    2.59628500   2.24753900   1.29643400
C    1.65316700   3.19206600   1.33475500
C    4.44388900   1.39228900  -0.15748800
C    5.63913200   1.27391300  -0.27396700
H    0.47802300  -0.57708500   0.43917600
H    1.10805100  -0.75022900  -1.21486700
H    0.52086100   0.85910800  -0.66252300
H    2.89520900  -0.49823600   0.56479300
H    2.56019300   2.06920300  -0.86127600
H    3.13361700   1.92506600   2.19306800
H    1.11285500   3.52105500   0.44186100
H    1.41508400   3.69788800   2.27375300
H    6.70664700   1.17609000  -0.38442900