17

C    0.92492300   0.13068500  -0.47507600
C    2.36964000  -0.02379200  -0.00379100
C    3.31786800  -0.49096500  -1.10046000
O    4.62481400  -0.44794100  -0.59701700
N    2.87039900   1.22670200   0.60304100
N    3.21381600   2.28049800  -0.08416900
C    4.24774100   2.49062900  -0.78533000
H    0.26694400   0.43947400   0.34823200
H    0.56254100  -0.83614800  -0.85035400
H    0.85087600   0.87083200  -1.28506900
H    2.42571000  -0.73800300   0.83218100
H    3.19702600   0.14119600  -2.00307100
H    3.00108900  -1.50857500  -1.38375800
H    5.19643600  -1.04096700  -1.09551200
H    2.62731400   1.42768000   1.57683800
H    4.28279000   3.41127800  -1.37668900
H    5.06977600   1.75731200  -0.78502300