11

O    0.88130900  -1.22575400   0.41372400
C   -0.38750200  -1.47691300   0.12746500
C   -1.38496400  -0.57572400  -0.19559800
C   -1.33808200   0.82567600   0.00269500
N   -0.24811700   1.46439500   0.40654500
N    0.90020500   1.05146000   0.01217100
C    1.46134300  -0.07047900  -0.06928200
H   -0.60995000  -2.54594000   0.21399100
H   -2.36349900  -1.01510800  -0.40046500
H   -2.26336200   1.41228500  -0.01436100
H    2.45526900  -0.21089700  -0.50149500