13

C    1.03939400  -0.07978200   0.02138300
C    2.50639800   0.04769500  -0.10800200
C    3.21294600   1.21825400  -0.16115000
O    4.54407200   1.22799100  -0.27938700
C    5.19772100   0.05839500  -0.34714100
C    4.51703200  -1.10716800  -0.29628600
O    3.17810000  -1.11602300  -0.17735600
H    0.56149600   0.90534000   0.07134800
H    0.79555400  -0.64966500   0.93122300
H    0.63817300  -0.63624200  -0.83965400
H    2.76207800   2.20898300  -0.11293400
H    6.27918600   0.14853500  -0.44249900
H    4.97050800  -2.09660300  -0.34479700