18

C    0.97376900  -0.00526300   0.01207300
C    2.47147200   0.01023200  -0.01259000
C    3.16949500   1.16241100   0.09766900
C    4.68637100   1.17946100   0.26430000
N    5.11146900   0.05055800  -0.50339900
C    4.69438700  -1.24007600  -0.05899900
C    3.14214500  -1.32259300  -0.18845300
H    0.61893700  -0.60188800   0.86765600
H    0.57981400  -0.48627700  -0.89696100
H    0.55077500   1.00331200   0.09138100
H    2.67089200   2.13513600   0.06505100
H    5.11463000   2.10449800  -0.14278400
H    4.99584700   1.07196400   1.31495800
H    5.35001100   0.18907400  -1.48711900
H    4.98073000  -1.34758300   0.99914500
H    5.18266200  -2.02466600  -0.64917400
H    2.73654000  -2.06672600   0.51373300
H    2.90763300  -1.69292500  -1.20056800