15

O    0.92773900   0.71543200  -0.43129800
N    2.15890600   0.66037200  -0.88523700
C    2.35079000  -0.11573000  -2.03210500
N    1.43029600  -0.70945300  -2.67708100
C    3.20497500   1.29177900  -0.13132200
C    4.23855800   2.10950900  -0.84551100
C    3.20231800   2.80350500  -0.01825700
H    0.90655200   1.32141900   0.33358700
H    3.40559700  -0.17119100  -2.32456900
H    0.48536200  -0.56595800  -2.30291000
H    3.49058100   0.68715700   0.73911500
H    4.15770300   2.21449700  -1.93067800
H    5.26019600   2.02962600  -0.46909600
H    3.47549900   3.21511300   0.95545500
H    2.42853100   3.35986400  -0.55521700