15

O    1.03664600  -0.19332200   0.31678900
C    2.40827300  -0.25371000   0.24998200
C    2.82553300   1.23407700   0.07350700
C    4.47123200   1.32505000   0.01244600
O    4.70169700   2.64163900  -0.23041100
C    5.04880400   0.76725700   1.20840100
C    5.52765400   0.29722800   2.21888800
H    0.62498500  -0.31226200  -0.55200700
H    2.78996700  -0.87102900  -0.57899500
H    2.79608900  -0.61676400   1.21401100
H    2.49057400   1.84595800   0.92188000
H    2.45716400   1.66220400  -0.86830100
H    4.71821700   0.74440800  -0.89486600
H    4.93936500   3.12642400   0.57715300
H    5.97045200  -0.11982200   3.11057200