14

N    1.13833100  -0.26948700  -0.32409700
C    2.43607300   0.06416000   0.19219100
C    3.57522000  -0.72037500  -0.51455100
O    4.38415400   0.46473800  -0.51307600
C    3.14048800   1.16858100  -0.64249200
C    2.73817800   0.69276700  -2.03970300
C    3.04734400  -0.65041900  -1.94873500
H    0.40890800   0.43687600  -0.23977600
H    0.78700600  -1.20568600  -0.12860300
H    2.52781000   0.15930500   1.28463600
H    4.05709000  -1.62980500  -0.14146000
H    3.16726100   2.23654600  -0.40335000
H    2.37829800   1.27007800  -2.89235600
H    2.99996500  -1.43073900  -2.70944200