17

C    1.52788000  -0.44079000   0.01963500
N    2.27795900   0.45512800  -0.81376200
C    2.58993400   1.82528500  -0.49806900
C    3.91368100   1.65801800   0.20488300
N    4.97085400   1.67920500  -0.53175800
O    6.08423200   1.50676800   0.14513000
C    7.25290300   1.60830200  -0.67400900
H    2.17747100  -1.23639900   0.42271200
H    0.75502000  -0.93155000  -0.59683800
H    1.05187000   0.11024400   0.83887100
H    2.76926400   0.05604300  -1.61759200
H    1.81622400   2.25772900   0.14805400
H    2.69816100   2.41260000  -1.41870700
H    3.95148800   1.43698500   1.28034100
H    8.08890600   1.35462500  -0.01467500
H    7.35967800   2.63558600  -1.04784800
H    7.18822000   0.89877500  -1.50994600