15

C    0.73344500   1.15060500  -0.73663900
C   -0.34874300   1.07160000   0.23595300
C   -1.44117900   0.03738200   0.01145300
C   -0.70346900  -1.30180300  -0.16389500
N    0.60571100  -1.06356000   0.42622800
C    0.93786300   0.25067900   0.56482000
H    0.68581500   0.59412400  -1.67693300
H    1.39288900   2.02163400  -0.72884600
H   -0.54627800   1.93181500   0.88138500
H   -2.10040600   0.00026100   0.88883100
H   -2.05964500   0.28343500  -0.86247200
H   -1.19047200  -2.14146900   0.35247300
H   -0.57328900  -1.60630000  -1.21790900
H    1.21210800  -1.81726000   0.74827400
H    1.73599000   0.52337000   1.25698900