15

C    0.95852700   0.00548800  -0.02947800
C    2.40109200  -0.00492100  -0.01378900
C    3.62939900  -0.01034900  -0.00085700
C    5.01671500  -0.04416800   0.01398400
C    5.77377300  -1.33547100   0.03248100
N    5.60669800   1.16734100   0.01026100
N    6.87909700   1.23081100   0.02284700
H    0.56736500   1.03206500  -0.02968600
H    0.57475100  -0.53416000   0.85138000
H    0.59531400  -0.52555300  -0.92432300
H    5.08523800  -2.18709200   0.03238200
H    6.40350900  -1.40778500   0.93563600
H    6.42203900  -1.42247900  -0.85616100
H    7.29388900   2.16294400   0.01968100
H    7.49986900   0.41428100   0.03593200