13

O    2.08715900   0.80931200  -0.03487000
C    2.33940600   1.89040900  -0.47861400
C    3.75037000   2.48831400  -0.40486100
C    4.73893100   1.48792000   0.04028600
C    6.07790500   1.54405100  -0.20209600
C    6.88598500   0.48567200   0.30521900
O    8.10052400   0.36834100   0.18779300
H    1.57179600   2.54144000  -0.95194400
H    3.70936300   3.28905800   0.36394000
H    4.03731800   2.99707100  -1.33898200
H    4.31109400   0.64278000   0.59999700
H    6.56869800   2.34300100  -0.76347000
H    6.42165700  -0.35931500   0.87611300