15

C    0.87141600  -0.09046100  -0.05272300
C    2.41462600  -0.03426600  -0.04570600
C    3.12423600  -1.23227600  -0.57027700
C    3.99821200  -0.82260800  -1.52163700
O    3.93980100   0.51671600  -1.69047600
C    3.03064200   1.05003600  -0.86962800
C    2.82027500   2.40018600  -0.90354400
H    0.45474400   0.83625500   0.36273200
H    0.53403000  -0.92660600   0.57277800
H    0.49065700  -0.23075300  -1.07284400
H    2.73776200   0.12245300   1.00814200
H    2.97243700  -2.25909000  -0.23942500
H    4.71088000  -1.34925600  -2.15357600
H    3.38873600   3.02851400  -1.59292500
H    2.08291400   2.85816500  -0.24245700