19

C    4.06667500  -0.83741500   0.10719300
O    3.73411600   0.17811700   1.02610200
C    3.38079800   1.46255600   0.59437200
C    2.39708300   2.09631800   1.54533000
C    4.78991800   2.09932300   0.63647000
C    5.77717100   1.97497400  -0.47354100
C    5.01062000   3.25273500  -0.38742900
H    3.58783700  -1.75422500   0.48677100
H    5.15838400  -0.99526700   0.14619200
H    3.72711600  -0.59837900  -0.90941800
H    3.01799800   1.42697000  -0.44694600
H    2.78374200   2.09509000   2.57351200
H    1.44130100   1.55612600   1.52108900
H    2.22290000   3.13482800   1.23183300
H    5.16709200   2.23742800   1.65315100
H    5.51363200   1.33023600  -1.31942200
H    6.83421300   1.96918300  -0.19910400
H    5.45870700   4.14839600   0.05071500
H    4.22094700   3.43701500  -1.11905100