15

C    0.75439000  -0.26909600  -0.24318300
C    2.23003300  -0.22791400   0.03251500
C    3.01899200  -1.37883900  -0.03735000
N    2.88394300   0.89558100   0.35938600
C    2.27046800   2.06848400   0.46522700
N    3.03473400   3.08707400   0.79359000
O    4.33587400   2.96787600   1.00876600
H    0.49439000   0.38446700  -1.09069400
H    0.18073300   0.06372000   0.63612500
H    0.42686800  -1.28490100  -0.49141400
H    2.58655000  -2.34762800  -0.29476000
H    4.08943000  -1.31398500   0.16858800
H    1.20757500   2.29269300   0.31311300
H    2.69646700   4.04320200   0.90909500
H    4.52178000   2.01262200   0.86522400