16

N    0.87296000   0.27792600  -0.12439700
C    2.00580200   0.10597700  -0.26330300
C    3.44679500  -0.07739700  -0.41019000
C    4.20541600   1.04098700   0.36606800
C    5.66353100   0.87854900   0.22661500
C    6.65699400   2.01172000   1.26930500
C    6.58570700   0.55055200   1.35270800
H    3.70546300  -0.05540600  -1.47985000
H    3.72018500  -1.06949100  -0.02007800
H    3.89576400   1.04656100   1.42126400
H    3.91021200   2.00686600  -0.08753000
H    6.08565900   0.89546800  -0.78609000
H    6.00504000   2.64132700   1.88303900
H    7.40072400   2.51127900   0.64065000
H    7.49423500   0.02212900   1.03739700
H    6.08056500   0.15692000   2.24290800