15

C    0.95266700   0.04504600  -0.00010700
C    2.43270500   0.03511800  -0.00523200
C    3.28237800   1.12539000  -0.01540200
N    4.56189800   0.64710500  -0.00931000
N    5.66138300   1.36866000  -0.06048500
C    4.56685600  -0.77139100  -0.00301200
C    3.27901400  -1.16690200   0.00265700
H    0.54543200   1.06293300  -0.00832200
H    0.57390100  -0.48453800   0.88917500
H    0.56863300  -0.50058000  -0.87738000
H    3.06984000   2.19229600  -0.02687600
H    5.58102800   2.37406700   0.06281600
H    6.54564600   0.90217200   0.11936200
H    5.50673700  -1.31942700  -0.00713100
H    2.92377400  -2.19539800   0.01096600