16

C    1.93646800   1.41540700  -1.28389700
O    3.23630200   0.98652700  -0.79008300
C    4.17213800   1.81408800  -0.60187100
O    4.00679000   3.05120300  -0.83703900
C    5.50402400   1.34594900  -0.09411700
C    6.47603700   2.49532500  -0.06751800
N    7.08707000   2.82085800   1.10922300
H    1.34563400   0.49923500  -1.35604700
H    2.06411500   1.88513100  -2.26655100
H    1.49491400   2.11807900  -0.56713000
H    5.82509100   0.50732800  -0.73680000
H    5.33366400   0.89867100   0.90084500
H    4.90192500   3.47476000  -0.60712700
H    7.08530800   2.66174200  -0.96208600
H    6.64618900   2.64971200   2.00507500
H    7.85410300   3.48217500   1.11307600