17

C    1.27800800   0.10240700   0.89219300
C    2.42386300  -0.01026500  -0.10335100
C    2.43452600  -1.31785100  -0.90445400
C    3.29151200  -1.12367500  -2.10027200
O    4.32240800  -0.23220500  -2.05073600
C    3.28374100   0.61392600  -2.30589700
C    2.42377500   1.07424600  -1.18754800
H    1.32451400   1.05881400   1.43105900
H    1.33242400  -0.70134900   1.63936600
H    0.30112000   0.03849100   0.38921700
H    3.38079200   0.05839700   0.44040800
H    1.42694100  -1.62324700  -1.23659200
H    2.84417600  -2.18619300  -0.35093300
H    3.35388000  -1.84325000  -2.92616800
H    3.34062900   1.12143900  -3.27696800
H    2.82507700   2.05142200  -0.85244200
H    1.41387000   1.28468500  -1.58076700