17

C    0.98014700  -0.03022700  -0.19237000
C    2.46803800   0.03914500   0.15905200
C    3.06791800   1.34637900   0.07993400
C    3.59339500   2.46990000   0.01433400
C    4.18937100   3.71257600  -0.05466000
C    3.64254000   4.77034500  -1.12195700
C    3.30561500   5.00839400   0.25673100
H    0.63569700  -1.06774500  -0.09732900
H    0.80050500   0.29728900  -1.22510900
H    0.38247700   0.59285000   0.48634500
H    3.07688300  -0.62362200  -0.48773200
H    2.66890800  -0.33523700   1.18266400
H    5.25267000   3.78006400   0.19353200
H    2.88820700   4.37171500  -1.80350500
H    4.47602000   5.30786100  -1.58191700
H    3.88303000   5.72681400   0.84464400
H    2.29737000   4.78915300   0.61423400