17

C    1.02506900  -0.00915000   0.29953200
C    2.39601000   0.24672200  -0.23143500
O    2.48949100   0.08282700  -1.53131300
C    3.31662900   1.24197100   0.45055700
C    4.15672900   0.52748700   1.51535300
O    4.55439000  -0.68790000   0.87832800
C    3.51901400  -1.41272000   0.55534000
H    1.00683300  -0.02776800   1.39628300
H    0.60508400  -0.93882600  -0.10725100
H    0.38130300   0.82116900  -0.03921300
H    3.31891300   0.42428300  -1.89968700
H    2.71397600   2.04768300   0.89634700
H    3.98512300   1.69915400  -0.29521500
H    5.06269600   1.07854000   1.78718100
H    3.57842900   0.30157300   2.42648100
H    3.69685800  -2.17120700  -0.21343400
H    2.74960500  -1.60302800   1.31774200