16

C    1.66818800  -0.19187100   0.48297600
C    2.74603000  -0.29221900  -0.60296800
C    2.28293800  -1.24490500  -1.71043400
O    2.06415000  -2.39093600  -1.62950000
C    3.11559000   1.05603500  -1.19145000
C    3.78385700   1.20867000  -2.49566400
N    2.33307600   1.49969400  -2.38282900
H    2.01102400   0.46431000   1.29536500
H    1.46761600  -1.18471400   0.90539600
H    0.72467000   0.20865400   0.08372700
H    3.66834400  -0.72723100  -0.17937800
H    1.70447900   0.78921000  -2.78264400
H    3.25933700   1.86176900  -0.46534600
H    4.00054100   0.31857700  -3.09338200
H    4.40826000   2.08355000  -2.68663400
H    1.99994300   2.46333800  -2.45205700