18

C    1.17806100  -0.62258400   0.15125300
N    2.35064200  -0.31108900  -0.58498500
C    3.01052500  -0.48218900  -1.82968400
C    3.16599100   0.77562800  -0.99942600
C    4.43782500   1.06221600  -0.22070200
C    4.14552900   1.82444900   1.06109700
O    3.21250500   1.07182100   1.79841600
H    1.30049100  -0.20549900   1.15943900
H    1.00983000  -1.70707400   0.14842600
H    0.31919100  -0.12436200  -0.34297300
H    2.36460800  -0.51299400  -2.71616700
H    3.84271700  -1.19902800  -1.83111300
H    2.58321100   1.66203300  -1.29103200
H    5.10348000   1.64677400  -0.87261300
H    4.94444400   0.11321900   0.01230100
H    3.75539600   2.83189000   0.82150500
H    5.09352600   1.96008100   1.60930600
H    3.12412900   1.44314200   2.68188100