17

O    1.40632100  -0.17544700  -0.77756200
C    2.15541100   0.18010300   0.25127500
C    3.29060600   1.52296600  -0.28303900
C    2.46783100   2.68705900  -0.79532800
C    2.76383900   3.79835700   0.23239700
C    3.39990700   3.05561400   1.40282900
O    3.94626700   1.84812200   0.81588800
H    1.77418100  -0.91978700  -1.27682200
H    2.86342300  -0.55771300   0.65279500
H    1.58021300   0.74124700   0.99911900
H    3.90079600   0.90718000  -0.96073500
H    1.40053600   2.43234200  -0.86876000
H    2.79240100   2.94767800  -1.81333900
H    3.46818900   4.53109600  -0.18314100
H    1.86073200   4.34090000   0.53696200
H    4.23677400   3.56793600   1.89168900
H    2.68422600   2.73930600   2.18061200