12

C    0.92595400  -0.02647300  -0.16003200
N    2.33153600   0.20298200  -0.24654400
C    2.98067900   1.40732600   0.19160400
C    4.41707800   1.39540300  -0.00372400
C    5.61297100   1.39520400  -0.16221800
H    0.74527600  -0.93676000   0.44113400
H    0.53120200  -0.23427700  -1.17177900
H    0.41678100   0.83669900   0.28359800
H    2.92591100  -0.53299000  -0.64702400
H    2.70755500   1.56070600   1.25862500
H    2.49617600   2.25571300  -0.33974300
H    6.68193800   1.39945300  -0.30211600