17

C    1.66105900  -0.44450800  -0.93781600
C    2.88924600  -0.11947100  -0.07751100
C    3.17665200   1.33169400  -0.00024500
C    4.38196400   1.90986800  -0.30231600
C    4.61534300   3.39373300  -0.23182500
N    5.02591400   3.38522000   1.14370200
H    1.46406700  -1.52384300  -0.90784300
H    1.82444500  -0.15725800  -1.98587500
H    0.76253500   0.07299800  -0.57120900
H    3.77638000  -0.67269900  -0.41987600
H    2.68849700  -0.44836200   0.96177400
H    2.34033400   1.98536500   0.28621400
H    5.25067700   1.28156700  -0.52741300
H    3.71162500   3.99845600  -0.37170700
H    5.41483800   3.74925000  -0.89160400
H    4.34058800   3.43789300   1.89504300
H    5.97101300   3.11121500   1.40742700