14

C    1.05546600   0.04104700  -0.14048800
C    2.45620300  -0.14868300   0.42752200
O    3.08279400   1.12702100   0.55800300
C    4.18352300   1.41906100  -0.19725000
C    4.71276100   2.73834800  -0.01760900
C    5.19502600   3.84707400   0.10339000
H    0.56333100  -0.94158500  -0.14814100
H    1.10102400   0.42337000  -1.16966400
H    0.46458700   0.72575600   0.48137800
H    3.08385000  -0.81490600  -0.18373500
H    2.39855300  -0.52911000   1.46207300
H    3.95081900   1.23596900  -1.28107800
H    4.98000300   0.64767600  -0.01928700
H    5.62139200   4.83335800   0.21339600