15

C    1.07152300  -0.35170300   0.24558100
C    2.52090200  -0.16923700  -0.12491200
C    3.02053200  -0.41496900  -1.50860700
N    2.86094500   0.94154600  -1.01937200
C    3.86788100   1.98055800  -0.86166300
N    3.49586200   3.20056600  -1.19302800
O    4.90786300   1.55074700  -0.43461100
H    0.79646000   0.33462500   1.05736300
H    0.93793900  -1.38171600   0.60417700
H    0.40554100  -0.18953400  -0.61227600
H    3.24785400  -0.27065000   0.69076300
H    2.28849600  -0.69349200  -2.27697500
H    4.05501800  -0.72400700  -1.69261800
H    2.56499100   3.39234000  -1.54825200
H    4.15904800   3.96563100  -1.09893600