19

C    0.95292600  -0.08380300  -0.17272900
C    2.39914900   0.10247000  -0.34127400
C    3.15244500   1.23172700   0.02792200
C    2.43669000   2.40271000   0.63176400
C    4.57538400   1.18616100  -0.17443000
C    5.24535000   0.02636900  -0.86867900
C    5.37101700   2.21553400   0.30092700
H    0.76839100  -1.04308700   0.34216200
H    0.49921800  -0.22061100  -1.17304000
H    0.43520500   0.72541200   0.35188800
H    2.92909400  -0.73723300  -0.80008400
H    1.57912200   2.68555100   0.00350600
H    3.05872500   3.29362300   0.74910800
H    2.03488000   2.13436400   1.62241700
H    4.82656900  -0.14390500  -1.87088400
H    5.14144900  -0.90375900  -0.28978400
H    6.31845900   0.21588400  -0.98850300
H    4.97351800   3.08322500   0.82793100
H    6.45574500   2.17718900   0.17248300