15

C    0.96685600  -0.06204300   0.18547500
C    2.48863900   0.01117200   0.00908800
C    3.20151600   1.17989000   0.70237700
N    4.27983600   0.55381600   1.39448200
C    4.29690300  -0.83710700   1.35588500
O    5.03614400  -1.60814900   1.86766500
N    3.18260100  -1.12074100   0.52752500
H    0.55535800  -0.92959400  -0.34728600
H    0.51588800   0.84361800  -0.24179500
H    0.70283800  -0.12965300   1.24990900
H    2.69927200   0.05622100  -1.08364400
H    2.52227100   1.69088400   1.41235900
H    3.56553900   1.95127300   0.00187700
H    5.00416000   1.05913600   1.90552200
H    2.93216500  -2.09145400   0.32322700