16

C    0.85123000   0.28081400   0.06313600
C    2.25105400  -0.28562000  -0.12309800
C    3.33425400   0.74964000  -0.00681000
O    3.14513500   1.92964800   0.19717500
C    4.77043700   0.41116000  -0.19294100
C    5.24260600  -0.62516100  -1.02083900
N    6.51764300  -0.86639600  -1.20288300
H    0.10853400  -0.52362700  -0.01004400
H    0.62378100   1.03423100  -0.70276700
H    0.74711200   0.75876300   1.04669300
H    2.34491500  -0.78316200  -1.10562400
H    2.47764200  -1.06575400   0.62687100
H    5.47619200   1.11465500   0.26280300
H    4.54423500  -1.29002200  -1.53971400
H    7.24165900  -0.29555900  -0.76539300
H    6.83273900  -1.64201000  -1.78430400