19

C    2.57141500  -0.54872700   1.46784500
C    2.82762200   0.02461400   0.07748200
N    3.33372400   1.40466800   0.11723000
C    2.32285400   2.45741000   0.14327900
C    4.64262200   1.70051200   0.20877700
C    5.10677100   3.12144600   0.16698200
N    5.55349200   0.76414600   0.43255200
H    2.15610600  -1.56011800   1.36514500
H    1.84575700   0.05822300   2.02733200
H    3.49991700  -0.61322700   2.05314200
H    1.90089700   0.05866900  -0.51151900
H    3.53852500  -0.59341300  -0.48992500
H    1.38752700   2.04888300   0.54225300
H    2.14825000   2.81580600  -0.88462500
H    2.64489100   3.29903100   0.76639000
H    4.63154900   3.68197900  -0.64894900
H    6.19464200   3.12981300   0.03508900
H    4.88106300   3.62565900   1.12092000
H    5.27483000  -0.19805000   0.21323700