16

C    0.94050300   0.27826300   0.23771600
N    2.37671000   0.35039200   0.14103700
C    3.18974700  -0.84719300   0.14333700
C    3.42720500  -1.07630300  -1.34160400
C    2.69851300  -1.92922500  -2.07641600
C    3.03494300   1.62270600   0.03924500
O    4.22249900   1.68247700  -0.01756100
H    0.48285200   1.22625400  -0.07001100
H    0.66978100   0.06124900   1.28769600
H    0.56239500  -0.54310800  -0.38666000
H    2.63229800  -1.66480400   0.61677600
H    4.13056700  -0.65583700   0.67441500
H    4.22474100  -0.47261800  -1.78595600
H    1.86334300  -2.50168900  -1.65966200
H    2.95084800  -2.11333600  -3.12439600
H    2.33334900   2.47976400   0.03077700