19

C    1.39710200   0.44383700   0.50302400
C    2.24253300  -0.02875500   1.67589200
N    3.37717600   0.85905800   1.93409600
C    4.64232000   0.56037700   1.72335700
C    5.73854800   1.55417200   1.77688100
N    6.20482800   1.63198700   0.40480800
C    7.29207100   1.01576800  -0.05647700
H    0.55180900  -0.24290200   0.35927100
H    1.98220100   0.46416100  -0.42773900
H    0.98285500   1.44716500   0.68192700
H    2.64771500  -1.03452400   1.49656100
H    1.64450200  -0.08044100   2.59794700
H    3.15189000   1.78550900   2.29268400
H    4.87259000  -0.45471400   1.38658100
H    6.57418700   1.23783300   2.41964400
H    5.40110500   2.54175200   2.12529100
H    5.57454100   2.06867900  -0.26287600
H    7.46061400   0.96529300  -1.13119800
H    7.99698500   0.58165100   0.65345900