20

C    2.84603100  -0.62033500   0.18982000
N    3.58249400  -0.19654200  -0.96402500
C    3.81651100   1.14142400  -1.31305000
C    5.09599000   1.73682100  -0.50915900
C    6.33919500   0.89706100  -0.77231800
C    5.24101300   3.15966300  -0.93706000
C    4.88385100   4.20200800  -0.18038400
H    3.54700500  -0.97465900   0.96893700
H    2.19964000  -1.47129300  -0.07782600
H    2.24393700   0.20736600   0.58204400
H    4.10241500  -0.91740200  -1.46963000
H    2.95001700   1.76031000  -1.04489500
H    4.04469300   1.21725300  -2.38587800
H    4.81361900   1.69250500   0.55526800
H    6.58403600   0.86108300  -1.84543400
H    6.23532400  -0.13284300  -0.39816600
H    7.19745400   1.34734700  -0.25416600
H    5.68217100   3.32757500  -1.92693000
H    4.43870600   4.07097700   0.81110200
H    5.04480400   5.22795100  -0.51909500