17

C    1.31876600   0.12861800   0.77145700
C    2.41793500  -0.04324300  -0.07180700
C    2.83313700  -1.35329300  -0.68513400
C    4.36204100  -1.25729100  -0.80977600
C    4.67906900   0.22227500  -0.88025600
C    3.94748100   1.03417900  -1.81491600
C    3.31789600   1.00367200  -0.37399900
H    1.12334500   1.09107600   1.25146200
H    0.62346000  -0.69321400   0.96164600
H    2.32160700  -1.47067300  -1.65869900
H    2.51242300  -2.20913900  -0.07523200
H    4.84399400  -1.69928200   0.07273700
H    4.75686100  -1.77847100  -1.69483000
H    5.59586700   0.61334700  -0.42977500
H    4.32515600   2.02965300  -2.05785000
H    3.32986500   0.56165100  -2.58507000
H    3.32685500   1.94031500   0.18623600