14

C    1.00837000   0.08286100   0.03851800
C    2.48518000   0.01541900  -0.03468300
C    3.30381900  -1.14570400  -0.04204000
C    4.72783700  -0.75802900  -0.12134800
C    4.68396000   0.75764300  -0.16209400
O    5.53735000   1.57281400  -0.22579700
N    3.27097800   1.08743300  -0.10272500
H    0.56939300  -0.92079600   0.05198100
H    0.60911700   0.63989500  -0.82365700
H    0.70116800   0.61979100   0.95041700
H    2.91465100  -2.16342600   0.00475200
H    5.32270400  -1.11008800   0.74127900
H    5.23840400  -1.15973400  -1.01570000
H    2.94856100   2.05661000  -0.11468300