15

O    0.88897500  -0.17129000   0.01881800
C    2.24812800   0.04307100   0.15512700
C    2.93508000  -0.57258200  -1.09250000
C    2.33164200  -2.00128200  -1.30525300
O    2.98515100  -2.87862800  -1.73771700
C    2.65830800   1.48437300  -0.00139500
C    3.82928400   1.97164200   0.45722300
H    0.44089400  -0.17594000   0.87351100
H    2.66843000  -0.40802700   1.06935100
H    4.02780900  -0.63715100  -1.02101600
H    2.65271600  -0.03793800  -2.01779000
H    1.24628300  -2.05773400  -1.02346100
H    1.95434700   2.10672500  -0.56455800
H    4.56280100   1.34129700   0.97010800
H    4.06532700   3.03459300   0.36143400