12

C    0.97866600   0.03859800   0.00920800
C    2.45073500  -0.04770700  -0.03839100
C    3.26237000  -1.14318600  -0.02917400
C    4.69488500  -0.72114500   0.00479100
O    5.70925900  -1.29027000  -0.05466900
N    4.54850600   0.79647100   0.23494500
C    3.35556700   1.14056800  -0.04452000
H    0.52240700  -0.95435400  -0.09282600
H    0.60245600   0.70645800  -0.78104900
H    0.65759000   0.46495900   0.97579000
H    2.98377000  -2.19441400   0.06643700
H    3.06554700   2.18393400  -0.22899100