19

C    0.85218600   0.01826100  -0.28265400
C    2.27822900  -0.16234100   0.09863200
C    2.64825000  -0.03846600   1.53438100
C    3.29976300  -0.58398900  -0.91210200
C    3.62139100   0.85323100  -1.06305100
C    2.94623200   1.76756000  -2.01406200
O    4.58386700   1.40632700  -0.37915000
H    0.66342700  -0.11759700  -1.35434400
H    0.46899400   1.00103100   0.03700500
H    0.25208100  -0.73376200   0.26048400
H    3.72525200  -0.12630100   1.72689600
H    2.15272800  -0.85317600   2.09245600
H    2.27904700   0.90401000   1.96859300
H    2.87462600  -1.03057200  -1.81893900
H    4.12201800  -1.18913300  -0.50474300
H    2.04890000   1.32681800  -2.45801500
H    3.66491100   1.98613700  -2.82295900
H    2.70691600   2.72541500  -1.52976000
H    5.13310300   0.77493500   0.10845500