14

O    1.34073400   0.44775000   0.20124800
C    2.62394800   0.15525300  -0.31538600
C    2.54094400  -0.69047700  -1.57883400
C    3.82382000  -0.60857100  -2.27449900
N    4.85644800  -0.46080800  -2.76923400
C    2.89052700   1.61911000  -0.54716800
C    3.55690500   2.42144500   0.36183300
H    1.32501200   0.44911200   1.17332400
H    3.29428200  -0.29239300   0.43331300
H    1.73434500  -0.31959700  -2.23076600
H    2.30790500  -1.73339000  -1.31775900
H    2.44381900   2.05449900  -1.44899700
H    3.85103800   2.05812300   1.35267600
H    3.84870800   3.44004900   0.08402000