15

C    2.47041400  -0.85127100   1.49674100
C    2.11443800  -0.27450600   0.16612800
O    1.18566700  -0.53128400  -0.53055300
N    3.01502500   0.74479100  -0.37064700
N    4.16938000   1.08576300   0.13568800
C    4.84194200   2.36148700   0.09859600
C    4.50609100   1.69915000   1.40549000
H    3.50787800  -1.21547900   1.51024700
H    1.78533000  -1.68347600   1.69444100
H    2.34685100  -0.09958700   2.29100900
H    2.83422100   1.01157400  -1.34488200
H    4.24257000   3.21418100  -0.23726000
H    5.87665900   2.32275200  -0.25568200
H    5.30315200   1.19895600   1.96309600
H    3.66397200   2.08167500   1.99100500