19

C    0.78470400   0.01202200  -0.53290700
C    2.18252600   0.00378800   0.00695500
C    3.30831800  -0.73107300  -0.89980700
C    3.32053200   0.70350200  -0.91095000
C    2.46196500   0.01170100   1.41515900
C    1.51099800   0.74632600   2.43437800
C    1.50428500  -0.70335200   2.44344600
H    0.77740400   0.00125400  -1.63020000
H    0.23900900   0.91083000  -0.20498600
H    0.22094800  -0.86880200  -0.18731700
H    2.83725000  -1.28158100  -1.71863300
H    4.04856800  -1.27950900  -0.31309900
H    4.07056300   1.24813800  -0.33318300
H    2.85936800   1.24888100  -1.73880600
H    3.51696800   0.00772500   1.70023200
H    0.67764600   1.28418700   1.97710700
H    2.06344000   1.29032000   3.20429600
H    2.05242000  -1.24308400   3.21940300
H    0.66655300  -1.23956200   1.99229700