20

C    1.35105700  -0.70295400   0.14676500
C    2.77707600  -0.47008500  -0.32682300
N    3.12361900  -1.19483500  -1.45150700
C    3.28356500   0.98058800  -0.31695800
C    4.80625300   1.14893900  -0.44046300
C    5.61444700   0.03013300   0.24810700
O    4.93112700  -0.56113300   1.34352200
H    1.21876800  -0.30498600   1.16035700
H    1.09866700  -1.77288300   0.16686200
H    0.64685200  -0.18538200  -0.52287700
H    3.48917900  -0.87560700   0.53808400
H    3.92608500  -0.94441900  -2.02566900
H    2.64177300  -2.05985800  -1.69213100
H    2.94008600   1.40323000   0.63775800
H    2.76499600   1.54471400  -1.10892200
H    5.06963900   2.12805300  -0.01503000
H    5.12192800   1.20053300  -1.49509100
H    6.59964800   0.40130700   0.56834100
H    5.80857500  -0.80434500  -0.44104100
H    4.89914500   0.04099100   2.09896600