22

C    0.99287500  -0.52770900   0.08131700
C    2.28421300  -0.28938800   0.85469800
C    2.65603000   1.19401700   0.96449900
C    1.55531200   2.09863300   1.63686200
C    1.10577700   1.65202500   3.01815300
N    3.87198900   1.35338700   1.69918300
C    4.78955300   2.43870700   1.55877300
H    0.84464200  -1.60497700  -0.07007000
H    1.02482200  -0.05491300  -0.91180100
H    0.11160400  -0.14733800   0.61708000
H    3.11565000  -0.80835400   0.35205100
H    2.20403600  -0.72328300   1.86606700
H    2.83283900   1.63160700  -0.03372800
H    0.71721400   2.08879100   0.92416000
H    1.93097600   3.13337400   1.65577700
H    0.66213300   0.64648600   3.00603200
H    0.33439800   2.34139400   3.38867800
H    1.92464200   1.66098600   3.75388800
H    4.06404600   0.67053500   2.43962100
H    4.89442700   2.96175000   2.52578500
H    4.45236200   3.12999800   0.77823600
H    5.78754100   2.03720400   1.30434400