19

C    1.59123100   3.20738000   1.02892100
O    2.85280600   2.91779500   0.46410500
C    2.94758600   1.68488700  -0.15876200
C    4.43178700   1.42160800  -0.45669600
C    5.18371200   2.61439100  -0.82434700
C    6.28046300   2.62642500  -1.70795300
C    7.03375700   3.82351800  -2.06968700
H    1.66098400   4.19915500   1.48973900
H    1.32443400   2.46681700   1.80254700
H    0.80285300   3.22176400   0.25733300
H    2.39355400   1.66448300  -1.11922800
H    2.54545000   0.86703400   0.46685000
H    4.59209900   0.57116600  -1.13535700
H    4.90529700   1.13733500   0.51784200
H    4.87750500   3.55035100  -0.33966500
H    6.58885400   1.67126300  -2.15366400
H    6.66492900   4.74360600  -1.60155700
H    7.04902000   3.93000600  -3.17165000
H    8.10057900   3.66525600  -1.81312900