15

C    1.06589100   0.03171000  -0.17222200
C    2.42152600  -0.03594700   0.03581800
C    3.35901600  -1.21250900   0.09092500
C    4.63263900  -0.36955900  -0.08766700
C    4.22534700   0.62174700  -1.17958600
C    3.35452700   1.11105000   0.17068100
O    4.43730600   0.66459500   0.90799400
H    0.43767000  -0.85496300  -0.03888400
H    0.57790600   0.97231100  -0.44664700
H    3.19364800  -1.95859400  -0.69966000
H    3.30000100  -1.71367600   1.07425600
H    5.61642700  -0.84936500  -0.04653900
H    3.71250800   0.28754500  -2.09016400
H    4.93837800   1.43662900  -1.35916000
H    3.01328200   2.13808600   0.33560600