18

C    0.99191800  -0.22438400   0.13757300
C    2.43602100  -0.44840600  -0.24572900
C    2.92024900  -0.17399400  -1.65825100
N    3.26731600   0.66892300  -0.57272500
C    4.42379800   1.36988800  -0.08449700
C    5.28676000   1.90292400  -1.18645800
C    6.53637100   1.48880300  -1.38875700
H    0.92169600   0.04323200   1.20037300
H    0.43987200  -1.16010100  -0.02268000
H    0.53054500   0.56734600  -0.46742600
H    2.97034800  -1.20552600   0.34550400
H    2.17833500   0.22789200  -2.36176600
H    3.75624900  -0.71596100  -2.11817400
H    4.95929000   0.66587200   0.58481200
H    4.03466700   2.16286300   0.58425400
H    4.84744700   2.68389600  -1.81549400
H    7.00751300   0.72703300  -0.75941800
H    7.14660100   1.91510600  -2.18799800