15

C    1.13533700  -0.14432500   0.01317600
C    2.62502500  -0.16612500  -0.24537200
O    3.16478400   1.12690200  -0.23011200
C    4.46924300   1.36887600   0.22058200
C    5.10447100   2.52161200  -0.52388100
H    0.74759600  -1.16150500  -0.13151400
H    0.61640000   0.53202500  -0.67878500
H    0.93469200   0.16609000   1.04807600
H    2.82238800  -0.49295300  -1.29957400
H    3.21910100  -0.83137700   0.40566500
H    5.04498100   0.42671200   0.23510400
H    4.30076800   1.65560600   1.29135000
H    5.28153700   2.24416300  -1.57235900
H    6.06970000   2.74500900  -0.05021800
H    4.47635900   3.42132300  -0.48457600