13

C    0.95053200   0.01186700  -0.00792600
C    2.44177300  -0.00309800  -0.00011400
C    3.23506100   1.18287700   0.00152100
S    4.91875400   0.91203700   0.00923900
C    4.61484200  -0.81733600   0.01058200
O    5.64275500  -1.59737200   0.01625700
C    3.24100900  -1.13739500   0.00517500
H    0.55317300   1.03369100   0.00404200
H    0.55951200  -0.52691600   0.86838400
H    0.57020300  -0.50096400  -0.90452700
H    2.84802800   2.20454500  -0.00161600
H    5.41719600  -2.54222500   0.01674100
H    2.87093900  -2.16424900   0.00539300