17

C    1.99671400  -0.18434300  -0.04654100
C    0.77357400  -0.95478300   0.28313700
C   -0.36843500  -1.42311600  -0.54036500
C   -1.55051000  -0.50484400  -0.22651500
C   -1.43457700   0.73277100   0.27445000
C   -0.10221200   1.43609300   0.53746100
C    0.90982300   0.78360100  -0.32955700
H    2.54624300  -0.46568200  -0.95141100
H    2.62184000  -0.00343100   0.83460200
H    0.57433600  -1.00608400   1.36054700
H   -0.62763000  -2.44223400  -0.20122800
H   -0.15120900  -1.47762000  -1.61819900
H   -2.54496100  -0.92029400  -0.40611200
H   -2.33609400   1.31036300   0.49226400
H    0.16415300   1.44927300   1.60552400
H   -0.19813300   2.48556000   0.20547500
H    0.67914900   0.87165900  -1.39828400