14

N    0.77515200   0.85783100   0.54485400
N    2.07603300   0.86735300   0.57993800
C    2.98647200   1.21693700  -0.23429200
C    4.43428300   1.14308100   0.09323100
C    4.96839400   2.55909800   0.20185600
C    5.75954100   3.12501700  -0.70776000
H    0.32086800  -0.04868600   0.40251900
H    0.29142400   1.53717300   1.13875100
H    2.67584000   1.63624100  -1.20690000
H    4.93260400   0.61249000  -0.73415700
H    4.58444300   0.57604600   1.02280500
H    4.66882700   3.11383200   1.09704900
H    6.08694300   2.59423100  -1.60702400
H    6.12820800   4.14410600  -0.57185900