16

N    2.84433100  -0.57823800  -2.31549900
C    3.11189900  -0.30784000  -1.22600700
C    3.46167600   0.12015800   0.12543100
C    4.48957800   1.21312700   0.15644500
C    3.87990400   2.69848800  -0.71150100
C    3.96074700   3.29248600   0.64943000
C    4.66435700   2.04025400   1.37521100
H    3.91697300  -0.72742300   0.67869800
H    2.55327000   0.38961500   0.68977400
H    5.38129900   1.05599500  -0.47217200
H    2.91574600   2.39289400  -1.13884100
H    4.63235200   2.96994200  -1.45957000
H    4.61607200   4.17190700   0.71475200
H    2.97412400   3.45683600   1.10351100
H    5.70680100   2.28242200   1.61477900
H    4.10487900   1.71565500   2.26101900