15

C    0.91362800  -0.07189300   0.06849400
C    2.44658100  -0.04975700   0.06781200
C    3.06233600  -0.68721500   1.31874900
C    3.01179600  -0.68188300  -1.21488500
O    3.65441500  -0.07076600  -2.01806900
C    2.96727400   1.42567400  -0.10090300
O    2.78666200   2.30822600   0.64315200
H    0.48339600   0.41453900  -0.81817100
H    0.53455400   0.42434900   0.97241400
H    0.57280900  -1.11811600   0.09565400
H    2.67644900  -0.18909600   2.21874400
H    4.16028600  -0.63840300   1.32133500
H    2.75731600  -1.74369700   1.36669600
H    2.78630400  -1.76304500  -1.36007900
H    3.56260900   1.47840700  -1.09729500