15

C    1.08723900   0.04742400   0.10626600
C    2.55856500   0.07224700  -0.00074000
N    3.32787600  -1.02569900   0.22241000
C    4.59616900  -0.65657200   0.04270900
C    5.66304600  -1.54238300   0.19211700
C    4.68432500   0.80186100  -0.32969700
N    3.27801500   1.13424600  -0.31685400
H    0.69774100  -0.71211000  -0.58834100
H    0.63047400   1.02053300  -0.10639800
H    0.81470400  -0.28402000   1.11963800
H    6.69593800  -1.22352000   0.04107300
H    5.45248400  -2.57794500   0.46684800
H    5.13124800   0.96512200  -1.32481700
H    5.24965600   1.39951100   0.40507600
H    2.89811700   2.05464400  -0.52205100