18

C    0.98141200  -0.12277400  -0.05684500
C    2.47452100   0.09220400  -0.01134100
C    3.41907200  -0.53541800  -1.10706600
N    4.36816800  -0.32419400  -0.00637800
C    3.37794900  -0.69712300   1.01209800
C    4.58923100   1.12613800   0.10867800
C    3.07010800   1.52028600   0.10908700
H    0.52545800   0.27764700   0.85999600
H    0.72165900  -1.18650500  -0.14179100
H    0.56040800   0.41133200  -0.92072900
H    3.64291700   0.01542300  -2.02796200
H    3.22383000  -1.59996100  -1.28540700
H    3.17929000  -1.77585300   1.01923000
H    3.56456500  -0.29301900   2.01382400
H    5.12206900   1.35521000   1.03888000
H    5.15704500   1.49204600  -0.75466200
H    2.80337200   2.16054600  -0.74244500
H    2.76867600   2.02481500   1.03686300