12

C    0.99746200  -0.03055700  -0.00644300
C    2.45280800   0.08501300   0.00125100
C    3.33214200   1.20424000   0.00348500
C    4.61558700   0.69770000   0.01008400
C    4.47312600  -0.70394100   0.01162200
O    3.18281100  -1.04529400   0.00634600
H    0.51924200   0.95451500  -0.00064500
H    0.66815500  -0.61755100   0.86890400
H    0.67741600  -0.60076900  -0.89651800
H    3.01716700   2.24662300   0.00051000
H    5.55887300   1.24153400   0.01353500
H    5.19857800  -1.51807500   0.01622800