19

O    2.76405300   0.78039600   2.71687300
C    3.64387800   1.12828400   1.71829100
C    2.87606900   1.77919400   0.56986500
C    3.83937000   2.37318300  -0.45320200
C    4.67332300   3.47034300   0.06645300
C    6.25815200   3.01753900   0.77045500
C    6.02565200   3.80955800  -0.44722800
H    3.05342500  -0.01270200   3.17900600
H    4.24415700   0.27377400   1.35159900
H    4.38534100   1.89452600   2.08352600
H    2.22933300   2.56688600   0.98632300
H    2.21577800   1.03895800   0.09656100
H    3.23469400   2.85333800  -1.25700800
H    4.44985900   1.61218700  -0.96700300
H    4.19376800   4.19286000   0.73785200
H    6.45755000   1.94553800   0.70109800
H    6.40358500   3.49890400   1.74094800
H    6.28672700   4.87142100  -0.37519000
H    6.29490200   3.31281500  -1.38625300