13

C    0.78095400   0.18793300  -0.18523900
C    2.10328000   0.01732500  -0.05343900
C    2.98156600   1.18638000  -0.02493900
O    2.69746800   2.34431700  -0.10456900
N    4.41158400   0.85999500   0.11812500
C    5.27863300   1.84531200   0.12297600
N    6.57113200   1.72097600   0.11093700
H    0.10379000  -0.66824900  -0.20965900
H    0.34929700   1.18916300  -0.27123700
H    2.54541100  -0.97876500   0.03207000
H    4.72512700  -0.10833600   0.19317200
H    4.82637100   2.85965400   0.03073600
H    7.23461200   2.21771000   0.71517600