16

C    0.73572000  -0.18737500   0.41166200
C    2.13866600  -0.52108500   0.14219300
C    2.49221200  -1.81095500  -0.33848900
C    3.22508000   0.45483900   0.35608900
C    2.85492900   1.84485100   0.87320700
C    4.05164800   2.67166600   1.02388100
N    5.01824100   3.29285600   1.12958700
H    0.63516000   0.14526700   1.46293800
H    0.03414100  -1.00388100   0.20953300
H    0.45376800   0.70712200  -0.17681400
H    1.72645400  -2.57237300  -0.51457000
H    3.53700500  -2.06835400  -0.54210000
H    3.79136200   0.52355300  -0.59859000
H    3.97099400  -0.03164700   1.02223700
H    2.34934000   1.78362000   1.85030100
H    2.16460800   2.35494300   0.18230100