17

C    1.03963500   0.08869500   0.04581200
C    2.50779200  -0.02858500  -0.09142200
N    3.16782300   1.05878900  -0.46017900
N    4.45721700   1.07607000  -0.39514700
C    5.26237300   0.04367000   0.24436300
C    4.68571800  -1.30872400  -0.16625400
C    3.19315400  -1.33628400   0.14728200
H    0.57410700  -0.35345000  -0.85436000
H    0.72257300   1.13561200   0.11816400
H    0.67630700  -0.49321200   0.90487700
H    4.89334400   1.88170900  -0.84898800
H    6.30229500   0.18662000  -0.07297900
H    5.21329200   0.19265700   1.33749500
H    5.21244300  -2.10934500   0.36855300
H    4.85894800  -1.46848300  -1.24113100
H    3.00951900  -1.57263100   1.21349100
H    2.66218100  -2.12392700  -0.41105700