17

C    0.96842400  -0.08268700   0.44031200
C    2.41800800   0.03972600  -0.00466900
C    2.69260700   1.23912300  -0.90946300
C    4.13006300   1.20854500  -1.43010800
N    4.55325500  -0.10510700  -1.79915500
C    3.76510400  -1.15278900  -1.66468500
N    2.80966000  -1.16700800  -0.75733000
H    0.69483000   0.80202700   1.02993700
H    0.81932200  -0.96412600   1.08105800
H    0.28977500  -0.14457100  -0.42282100
H    3.07096600   0.08467900   0.88575300
H    2.52214700   2.16817800  -0.34941200
H    1.98116400   1.22636100  -1.75067600
H    4.87676700   1.58470200  -0.70715300
H    4.26396900   1.85717600  -2.31756900
H    3.96736800  -2.05650200  -2.25159800
H    2.35579600  -2.05386800  -0.53712700