11

C    1.01933000  -0.15349600  -0.21947900
O    2.45720600   0.03849400  -0.18661100
C    3.03951400   1.15838000  -0.00290400
C    2.38913700   2.40131700   0.19981900
C    4.47445100   1.10480400  -0.00984000
N    5.63164300   1.10343900  -0.00862300
H    0.88568800  -1.22414500  -0.39529900
H    0.59835900   0.43270800  -1.04725900
H    0.59671500   0.13750700   0.75149700
H    1.29905200   2.48161600   0.21185100
H    2.99297600   3.30077900   0.34769900