17

C    0.93861200  -0.05847000   0.08398000
C    2.44586900   0.04191800  -0.10285700
N    3.21915800  -0.44707300   1.01570100
C    2.98316300  -0.70819600  -1.35570500
N    4.41726500  -0.86765700  -1.23715700
C    2.96460400   1.42106100  -0.04078500
C    3.45737700   2.52452500   0.09831600
H    0.44192700   0.37399900  -0.79520400
H    0.60347400   0.49642000   0.97098200
H    0.63913600  -1.11189200   0.17531100
H    2.96520100  -0.27099700   1.99004700
H    4.15540300  -0.79329100   0.69630500
H    2.64293500  -0.15874000  -2.24830600
H    2.50255800  -1.69760100  -1.37180800
H    4.93517200  -0.09883900  -1.65860400
H    4.74787900  -1.73116000  -1.66018900
H    3.86704100   3.51799200   0.19432400