18

C    1.92345200   4.29031500  -0.69383300
C    2.91437800   3.63995500   0.23540400
O    3.93568000   2.98542200  -0.56261400
C    4.71108100   2.10769500  -0.00619900
C    5.87259100   1.60970900  -0.77792400
C    6.73148000   2.54820700  -0.02437900
N    7.53279900   2.17526700   0.96050100
H    1.15464600   4.80170200  -0.09848800
H    1.42810700   3.54309900  -1.32848100
H    2.41394600   5.03517100  -1.33499700
H    2.44260900   2.87832100   0.87609600
H    3.42707100   4.37546800   0.87479500
H    4.48573800   1.73560000   1.00122900
H    5.79095100   1.84380300  -1.84684300
H    6.10441000   0.54947700  -0.61062600
H    6.71134200   3.60976400  -0.28478500
H    7.70221200   1.19672600   1.17350900
H    8.02610700   2.86002000   1.52443600