14

C    2.79273500  -1.12579600   0.29713000
C    2.25428100   0.10721200   0.30277700
C    2.92744200   1.31631000  -0.15416300
C    2.13181000   2.45780000  -0.43248700
N    4.25695200   1.33522800  -0.29610200
C    5.11665100   2.35798500  -0.82175200
O    6.28686500   2.17401200  -0.84125000
H    2.20875500  -1.98156800   0.64397900
H    3.79947900  -1.35001500  -0.06975400
H    1.21918600   0.24084300   0.62619800
H    1.05151400   2.39242600  -0.29032200
H    2.54026400   3.40688000  -0.78124300
H    4.79005900   0.51714800   0.00656400
H    4.59972900   3.26491000  -1.18687400