17

C    1.09237300   0.29910800  -0.69108100
C    2.40577000  -0.16699100  -0.16811100
C    2.69578300  -1.63247800  -0.03134700
N    3.27307600   0.71289900   0.15977400
N    4.48051200   0.56077500   0.63681600
C    5.64685800   1.34697400   0.27804400
C    5.09833600   1.36799000   1.67308500
H    1.02554100   1.39186800  -0.73297500
H    0.29142300  -0.10128600  -0.05014400
H    0.93846300  -0.12476700  -1.69570800
H    1.84098100  -2.23207300  -0.36345600
H    2.92076100  -1.87174300   1.01909400
H    3.57977400  -1.89607100  -0.63154300
H    5.45867800   2.19659800  -0.38440500
H    6.54636200   0.75846200   0.07518500
H    5.61282700   0.79422500   2.44942400
H    4.51817900   2.23264700   2.00759700