12

C    0.70958900  -0.09148900   0.13957400
N    2.15028400  -0.02814500   0.06385700
O    2.79008000  -1.14038600   0.15321100
C    3.03084000   1.14666100  -0.10512800
O    4.19758800   0.88190200  -0.13243400
C    2.37568700   2.40212100  -0.20924600
C    1.88433600   3.50362500  -0.30458000
H    0.31423000   0.92553100   0.04865300
H    0.42740600  -0.53626800   1.10638000
H    0.34200900  -0.72896000  -0.67940500
H    3.75719600  -0.89052500   0.07993600
H    1.44898700   4.48900900  -0.39007900