15

C    0.97880800  -0.05186700  -0.04384000
C    2.42723700  -0.03455900  -0.37927200
N    3.36699200  -0.81774300   0.22095200
O    2.80844200  -1.58018600   1.12832900
N    2.91421900   0.75053000  -1.29426900
C    2.70264600   1.75744000  -2.28440600
C    4.07241300   1.19228900  -2.00305500
H    0.84406700   0.19064400   1.02060600
H    0.57693200  -1.06419400  -0.19782400
H    0.42341400   0.66416400  -0.65952600
H    3.52487300  -2.11064200   1.51728200
H    2.45158700   2.75429100  -1.90699500
H    2.17093000   1.43700300  -3.18650500
H    4.50515000   0.47164200  -2.70426700
H    4.78574800   1.78846800  -1.42511500