20

C    0.84481400  -0.05761700   0.05008000
C    2.31509200  -0.20808400  -0.33166000
C    2.50240200  -0.58844800  -1.80915300
C    3.12565300   1.06119000  -0.06677600
C    2.82643300   2.30783300  -0.83615100
C    3.60885900   1.10592900   1.53650700
N    4.43236400   0.91691000   0.43527300
H    0.71718600   0.20742200   1.10995700
H    0.32639300  -1.01108200  -0.11880800
H    0.33637200   0.70176200  -0.56192000
H    2.76619800  -1.00714200   0.27800300
H    2.00047300   0.12258700  -2.48122900
H    2.04945800  -1.57644300  -1.97368900
H    3.56453700  -0.65642700  -2.08558700
H    3.30468200   3.19120500  -0.39194900
H    1.74155800   2.47411500  -0.88114800
H    3.18673500   2.20224100  -1.87251800
H    3.15969900   0.22983200   2.01484100
H    3.73826900   2.00894100   2.14205700
H    5.14227300   1.62283300   0.21880200