12

N    0.96539400   0.00041400   0.12243600
C    2.11812400   0.00030500   0.06907400
C    3.57931700   0.00008600  -0.02892300
C    4.13884800   1.16742200  -0.79527400
C    4.97931900   0.70378400  -1.80665600
C    4.97916500  -0.70731400  -1.80530700
C    4.13860100  -1.16883600  -0.79303500
H    3.99918400   0.00103300   1.00038800
H    3.90677100   2.21187600  -0.57154100
H    5.54717200   1.33713300  -2.49090300
H    5.54687800  -1.34209400  -2.48834100
H    3.90628000  -2.21280900  -0.56731600