12

C    1.00293400  -0.00469400  -0.00883700
C    2.21991800  -0.01535800   0.00191600
C    3.62079000  -0.04065500   0.04266500
N    4.39543200  -0.63425700  -0.96892000
C    4.57605900   0.74064200  -1.23186300
C    5.63528600   1.48011300  -0.68315100
C    6.53773900   2.16283300  -0.23770600
H   -0.07714800   0.00605100  -0.01560900
H    4.13371500   0.18846800   0.98404900
H    3.84252900  -1.11417600  -1.68365000
H    4.01097900   1.18653800  -2.06145600
H    7.34946200   2.76054200   0.14953500