15

C    0.01726900   0.48352700  -0.24901000
C    1.39222900   0.17767800   0.21605200
C    2.41925400   1.03984100   0.14194600
O    3.63032200   0.60362400   0.61607500
C    4.72134600   1.29726900   0.62382900
N    4.74376800   2.52332000   0.15627900
N    5.84987200   3.18429200   0.18026100
H   -0.28844800  -0.24801400  -1.01400200
H   -0.07689700   1.49535900  -0.66369000
H   -0.69223000   0.37021100   0.58620500
H    1.59033300  -0.80989000   0.64766200
H    2.39406400   2.05480000  -0.25675200
H    5.58062400   0.75994300   1.04804900
H    5.83154400   4.13248700  -0.18990900
H    6.72992400   2.81045500   0.54739500