12

O    2.66899500  -0.87946500  -1.35712100
C    2.23189900  -0.14539100  -0.39290900
O    1.13872600  -0.19689900   0.07825800
C    3.19382500   1.01330500   0.23330600
C    4.57734300   0.54126800   0.25927900
C    5.45895200   0.80012500  -0.75100900
H    3.60685500  -0.72107200  -1.56170900
H    2.77289300   1.23503900   1.21987100
H    3.00194700   1.84675500  -0.46501100
H    4.91056500  -0.02156100   1.13784200
H    5.16598200   1.35171300  -1.65243200
H    6.51095900   0.51274100  -0.66264500