16

N    3.00009100  -1.07853700  -0.57932000
C    2.42402100  -0.04536700   0.23549200
C    3.31651000   1.23570500   0.14668300
C    2.80059700   2.45329400   0.82944200
C    2.72533000   3.51807900  -0.07621000
C    3.15860000   3.07476600  -1.33823700
C    3.50997000   1.72202500  -1.24479900
H    2.29837600  -1.70323300  -0.96464500
H    3.68228100  -1.64229700  -0.07857400
H    2.31017100  -0.29072600   1.30713000
H    1.42147400   0.20779800  -0.14118400
H    4.30179400   0.96046600   0.57550900
H    2.51891600   2.50288500   1.88409600
H    2.38442600   4.52693300   0.16127000
H    3.20749700   3.68175700  -2.24341200
H    3.84946900   1.07532500  -2.05689900