14

C    0.93116700  -0.00123400  -0.00984800
C    2.42664300   0.05591600  -0.00155100
C    3.19433600   1.17121900   0.00560600
S    4.91819300   0.84166300   0.01318300
C    4.66420200  -0.81445700   0.00751600
C    3.27387800  -1.13103700  -0.00056200
N    2.80446500  -2.37039300  -0.00657600
H    0.50319500   1.00831000  -0.00533100
H    0.54816700  -0.52740800   0.87890000
H    0.55783200  -0.51554000  -0.90959800
H    2.85307600   2.20704300   0.00686300
H    5.49193000  -1.52469300   0.00978900
H    1.80393000  -2.54989400  -0.01229300
H    3.42068200  -3.17819200  -0.00561700