17

C    5.05997500  -1.08530200   0.05529100
C    3.97971600  -0.17796200  -0.55604100
C    3.73939400   1.04586500   0.23109600
C    3.70890200   2.32922000  -0.31130800
N    3.47469700   3.41628900   0.41783500
C    3.42338600   4.77163500  -0.04241600
N    3.58780000   5.18886400  -1.21487300
H    5.14313900  -2.00308400  -0.54060900
H    4.80843300  -1.37250300   1.08633300
H    6.03998400  -0.58871200   0.05819500
H    3.02034400  -0.73549000  -0.55801500
H    4.20312700   0.06602900  -1.60542400
H    3.57098800   0.93307400   1.31068900
H    3.88165000   2.47699400  -1.38181200
H    3.31120500   3.29249600   1.41888700
H    3.21186900   5.46730000   0.77946700
H    3.78187600   4.49369800  -1.93933400