19

C    1.34507100  -1.33280000  -0.32007000
C    2.69858600  -0.81693700   0.15783500
C    2.91178900   0.65184200  -0.19428200
C    4.20440300   1.27637400   0.38547700
N    5.38074500   0.56910500  -0.06877200
C    6.14426100   0.90427700  -1.12150800
N    5.85519200   2.00157500  -1.76646100
H    1.21769900  -2.39281400  -0.06213300
H    1.24386600  -1.23710500  -1.41141600
H    0.52069200  -0.77324800   0.14642400
H    3.49725400  -1.43486400  -0.29184000
H    2.77854300  -0.94734000   1.25119400
H    2.08987100   1.26600400   0.20560600
H    2.92067100   0.80475800  -1.28607000
H    4.19674700   1.19947400   1.48349000
H    4.29625900   2.32270400   0.06985800
H    5.61397900  -0.30614800   0.40832200
H    6.97129400   0.21801300  -1.35315900
H    6.45295800   2.13476000  -2.58977100