17

O    1.15103100   0.18517700  -0.56159000
C    2.36606400   0.17894300   0.18298500
C    3.22572800   1.35959100  -0.22184300
C    3.50022100   1.36169400  -1.72612200
C    4.13131300   0.05218600  -2.18924000
C    3.63804700  -1.15940300  -1.52565900
C    2.81150700  -1.13022900  -0.40388400
H    0.43815900  -0.26603100  -0.08340200
H    2.19316800   0.13241000   1.26713100
H    2.71974700   2.28583800   0.08355000
H    4.16443700   1.30115500   0.35425600
H    4.15603000   2.20093600  -1.99163500
H    2.55610600   1.51973100  -2.26849000
H    5.23127900   0.02563000  -2.00378700
H    4.08328400  -0.08669700  -3.28554200
H    4.00031100  -2.13341900  -1.87509600
H    2.39211800  -2.05721200  -0.00102500