18

C    0.96595600  -0.21755400   0.15214700
C    2.44513100   0.03982400  -0.07748100
O    3.26371800  -0.55665800   0.90154500
C    2.97166100  -0.59668700  -1.41806900
N    3.19157200  -1.95140400  -1.29282800
C    2.80139400   1.53213500  -0.19543000
O    4.14757700   1.67301500  -0.53447500
H    0.35752800   0.18530900  -0.66949400
H    0.63940700   0.28123200   1.07846100
H    0.75750800  -1.29245300   0.24924600
H    2.81618100  -0.57222900   1.75540000
H    3.96643900  -0.03508900  -1.47409100
H    2.39849500  -0.34044300  -2.31857900
H    3.53153800  -2.28063300  -0.38254100
H    3.04564700  -2.61888000  -2.04982900
H    2.55668200   2.02189300   0.76375700
H    2.20420300   2.01313200  -0.98374100
H    4.69283400   1.44269200   0.22957400