15

N    2.31499800  -0.55054900  -1.42053100
C    2.40679400  -0.04747000  -0.15297300
C    3.51330500   1.26725700  -0.00184800
C    3.46927500   1.79354900   1.41448900
O    2.61432700   2.93535700   1.32621800
N    2.46175700   3.31028300   0.06710200
C    3.00276400   2.42356700  -0.72387700
H    1.64041100  -0.19389000  -2.09044400
H    2.94735100  -1.27232100  -1.75265900
H    2.84212300  -0.76726900   0.55259600
H    1.46196500   0.37257100   0.21705200
H    4.46274400   0.84035700  -0.34537500
H    4.46880700   2.14990900   1.72392000
H    3.07243000   1.13126900   2.19516800
H    2.96082400   2.58312300  -1.80229700