13

O    1.00936400  -0.10033900   0.24305100
C    2.36544200  -0.04997000   0.04918300
C    2.98646600   1.12881200   0.82388600
S    4.40281800   0.09286200   1.38376900
O    4.59640000   0.01259000   2.80705700
O    5.43220400   0.04837300   0.36614800
C    3.04133700  -1.25309500   0.75240100
H    0.53706700  -0.40387500  -0.54442800
H    2.66102000  -0.02539400  -1.01211600
H    2.41781100   1.37864600   1.73280100
H    3.32060800   2.01750000   0.27144200
H    3.52210300  -2.05641400   0.17801500
H    2.55704500  -1.57516500   1.68710700