17

N    0.95023800   0.66444100  -1.18121800
N    2.15838100   0.42016700  -0.80902300
C    2.86552000   1.19166200  -0.04297100
C    4.33914100   1.11195700  -0.00014400
C    4.97013900   2.51165400   0.01408600
C    4.56368500   3.30713700  -1.21104300
O    3.14457400   3.29562600  -1.26188700
H    0.63207600   1.62265400  -1.34943400
H    0.38490100  -0.12179000  -1.50068100
H    2.34185500   1.84221900   0.67461900
H    4.70556600   0.49280600  -0.83174300
H    4.59667600   0.59069300   0.94115300
H    6.06341200   2.41218500   0.05549900
H    4.66185300   3.05247200   0.92304200
H    4.99165100   2.85511600  -2.12374700
H    4.94328600   4.33861500  -1.12944900
H    2.84560100   3.79993300  -2.02578500