20

C    0.92834000  -0.11092100  -0.06483200
C    2.43377300  -0.20043600  -0.11237400
C    3.14578500  -0.64689200  -1.33432800
C    3.22581500   0.83356600  -0.89323200
C    4.53321100   1.32939600  -0.42489300
C    4.26008300   2.46303500   0.77650800
N    5.44976800   2.94659600   1.27258900
H    0.59422400   0.60634000   0.69854900
H    0.49705500  -1.09234900   0.17851400
H    0.51713800   0.20387700  -1.03534500
H    2.91105400  -0.50852800   0.82728900
H    2.57598100  -0.81497800  -2.25210100
H    4.05137300  -1.24997200  -1.24010200
H    2.64148300   1.53595600  -1.49611400
H    5.10450100   1.86410300  -1.19582200
H    5.15456500   0.54927900   0.03632800
H    3.69061400   1.91829400   1.54070400
H    3.66920500   3.24938400   0.28941300
H    5.95636500   2.45814400   2.00954000
H    5.94334300   3.71429000   0.81910100