18

C    1.07870400   0.67106500   1.15416800
C    2.52207900   0.68349700   0.85261600
C    3.09753000   1.31453700  -0.22336900
C    4.52596700   1.23792100  -0.55069400
C    5.11884600   2.61858200  -0.11846700
C    6.23095500   3.19804700  -0.99277200
N    4.90824900   3.73186700  -0.95021700
H    0.71217200  -0.36976600   1.18504600
H    0.48184800   1.24690600   0.43606200
H    0.91290700   1.06276400   2.17381200
H    3.17887300   0.12503700   1.53285100
H    2.47409100   1.95030000  -0.86377200
H    4.70037100   1.12540000  -1.62969600
H    5.05966100   0.44823000  -0.00567800
H    5.11872300   2.77640700   0.96490900
H    6.48928600   2.60184300  -1.87443400
H    7.04624700   3.77705600  -0.54845100
H    4.73976600   4.65065400  -0.54074500