13

N    1.10786800  -0.03623000   0.08937200
C    2.42552200   0.03761200  -0.00960300
C    3.09670400   1.30996100  -0.06211700
C    4.47393100   1.31051200  -0.16613800
C    5.13877100   0.08100900  -0.21460600
C    4.37580300  -1.13136700  -0.15493200
N    3.07657600  -1.15457700  -0.05689300
H    0.51338900   0.78741100   0.13315600
H    0.67651500  -0.96070000   0.12348800
H    2.52331700   2.23854700  -0.02020700
H    5.02829000   2.24938400  -0.20939400
H    6.22614900   0.02912100  -0.29684600
H    4.88972700  -2.09762300  -0.19229900