17

C    0.70087700   0.07090600   0.40426200
C    2.15272700   0.00168200   0.58329700
C    3.10433300   0.91779000   0.07916500
C    2.71956100   2.10646800  -0.71519800
C    4.49473800   0.65134200   0.38127300
C    5.48300700   0.57896900  -0.78485800
O    5.43587800   1.64382200   0.08678300
H    0.35096700  -0.86552000  -0.07013400
H    0.34655300   0.93285700  -0.17087700
H    0.21683900   0.06220200   1.39900300
H    2.53966700  -0.84302500   1.16688500
H    2.05330900   1.83527600  -1.54927700
H    3.59361200   2.65630400  -1.08171300
H    2.14171400   2.79156700  -0.06758400
H    4.72466400  -0.00321400   1.23155300
H    5.13170000   0.76038600  -1.80811100
H    6.29261400  -0.14914700  -0.65339800