15

C    1.69627400  -0.07214500   0.00960800
C    0.78594000  -1.19994900   0.53198200
N   -0.43195400  -1.34654500  -0.26029400
N   -1.43130400  -0.52030800  -0.20374600
C   -1.29259400   0.74144600   0.12979600
O   -0.23698100   1.47434800   0.02239400
C    0.92853500   1.01646700  -0.71509300
H    2.43772000  -0.46674000  -0.70062200
H    2.25713200   0.34014400   0.85996500
H    1.29958400  -2.16883100   0.53357100
H    0.46543900  -0.99418500   1.56631600
H   -0.63423000  -2.21676600  -0.75610300
H   -2.18157100   1.26671800   0.49520000
H    1.53345200   1.91829600  -0.85437400
H    0.56941700   0.68202000  -1.70096900