15

C    1.37102300   0.15396800   0.77910300
C    2.34753900  -0.10947500  -0.16336200
C    2.81307600  -1.46269300  -0.62237600
C    4.33637100  -1.30714500  -0.74601300
C    4.55019700   0.14689300  -1.03830400
O    3.71713900   0.67578700  -1.97397500
C    3.13783200   0.93837800  -0.73149200
H    1.18458500   1.17199000   1.13304700
H    0.74616500  -0.65003400   1.17791400
H    2.34427100  -1.67793300  -1.60041600
H    2.51672200  -2.26695100   0.06258800
H    4.84746800  -1.58072100   0.18839900
H    4.78604500  -1.90940200  -1.55292400
H    5.48408900   0.68711000  -0.83751000
H    3.08643100   1.98789000  -0.42725800