13

C    0.91811100   0.07550700  -0.20941700
C    2.09111700   0.02071700   0.11019400
C    3.52019700  -0.05321400   0.30080200
O    4.15561700   1.01474300   0.80619700
C    5.43164800   0.56626500   1.30049700
C    5.16625400  -0.90979500   1.59668600
O    4.04885900  -1.21403500   0.73885300
H   -0.13584800   0.12786500  -0.44566700
H    3.70871500  -0.06928400  -0.87154100
H    6.18836900   0.73203300   0.51854200
H    5.67617100   1.16590600   2.18458400
H    5.99271500  -1.58470200   1.34402000
H    4.83444500  -1.10125500   2.62945800