15

C    2.81785200  -1.23805500   0.27447300
C    2.44120000   0.15727800   0.64788100
O    1.50621100   0.47703700   1.32939600
C    3.30408000   1.35238500   0.21551500
C    2.60042400   2.49359500  -0.11323200
C    4.72552100   1.23942800   0.27056700
C    5.57711800   2.30660100   0.38578000
H    3.63202100  -1.58001100   0.93466000
H    3.16997900  -1.29054900  -0.76571000
H    1.95572600  -1.89902600   0.42504100
H    1.51266600   2.51460800  -0.00324800
H    3.09142100   3.36958000  -0.54579900
H    5.15498800   0.23299800   0.26067100
H    5.22030800   3.33705300   0.46992900
H    6.65915400   2.15194400   0.40506600