19

C    2.37797000  -0.09615700   1.75059000
C    2.81445900  -0.07675200   0.27292900
C    3.25712700   1.29568800  -0.14394600
C    2.31397700   2.15557300  -0.69581300
C    4.62405100   1.71586100   0.06349100
C    5.64411200   0.72416400   0.52824600
C    5.00956300   3.03094000  -0.15821100
H    2.07109600  -1.11367200   2.02630700
H    1.52432400   0.57489000   1.92158500
H    3.19086400   0.20839000   2.42554000
H    1.97006300  -0.39121000  -0.35697500
H    3.62009800  -0.80582200   0.11207700
H    1.28773500   1.80918700  -0.84776200
H    2.53131600   3.17591400  -1.01446700
H    5.32849200   0.23911200   1.46408900
H    6.62162700   1.19212500   0.69146100
H    5.76505600  -0.07621000  -0.22022000
H    4.32770200   3.81324300  -0.49399100
H    6.04478000   3.33463000   0.01853800