14

O    1.54650600   2.34965900  -2.08248300
N    2.72908800   2.29970100  -1.60636500
C    2.90550200   1.55598900  -0.33997000
O    1.88325000   1.10382400   0.07527900
C    4.30931100   1.49758400   0.15840400
C    5.07029500   2.77556000  -0.10074300
C    6.08846400   2.87288100  -0.95866500
H    0.98287100   1.84123100  -1.42428300
H    3.45724800   2.79700000  -2.13840600
H    4.78497100   0.63638100  -0.34640800
H    4.25060800   1.24396100   1.22782400
H    4.76511100   3.64779200   0.48787700
H    6.45049000   2.01338300  -1.53297400
H    6.62353300   3.81637300  -1.09012300