16

C    1.45560800  -0.41989400  -0.35317200
C    2.96635800  -0.23458500  -0.08937000
C    3.28768700   1.18723700   0.12794100
C    4.16428600   1.91353500  -0.63744600
C    4.40156100   3.34205800  -0.32803400
N    5.57126500   3.90214200  -0.12238400
O    3.29904500   3.89955600  -0.38414600
H    1.24713100  -1.49143400  -0.46852600
H    1.14740500   0.09369000  -1.27382100
H    0.85079400  -0.04063900   0.48246900
H    3.56640500  -0.65918700  -0.90664000
H    3.22275100  -0.77664500   0.83912900
H    2.78574800   1.69527900   0.96156500
H    4.58003200   1.52769400  -1.57640600
H    6.41820500   3.34359200  -0.09351200
H    5.64530000   4.90885200   0.00771600