20

C    1.05374500   0.29538000  -0.09161300
C    2.50750900  -0.07203000  -0.04808600
C    3.12680900  -1.03064100  -0.97378900
C    3.42884100   0.43125700  -1.27160000
N    4.64618700   1.01737700  -1.01748500
C    5.65306700   0.39587000  -0.17944000
C    4.98814700   2.28700400  -1.63180500
H    0.88624100   1.32184900   0.26184100
H    0.50063600  -0.38325800   0.57676800
H    0.63219400   0.18755000  -1.10088700
H    3.00446400   0.06291100   0.91859700
H    2.49188700  -1.50508100  -1.72779300
H    3.95736600  -1.64798900  -0.62373300
H    2.86218900   0.91839800  -2.06732300
H    5.19540000  -0.14995900   0.65530600
H    6.31981300   1.16806100   0.22224700
H    6.24897600  -0.31013200  -0.78204600
H    4.19847200   2.60515200  -2.32052400
H    5.93677300   2.18335400  -2.18098400
H    5.12299700   3.04969200  -0.84838500