13

N    1.12678900  -0.17433400  -0.32409300
C    2.43510600  -0.08080300  -0.11833300
N    3.21026300  -1.12765700   0.21568400
C    3.11312000   1.18388400  -0.24264600
C    4.39831600   1.33160500   0.21469200
C    5.11979900   2.52608200   0.09710600
C    5.77001200   3.54918300   0.00638100
H    0.55753000   0.65377500  -0.47013400
H    0.64045900  -1.06430300  -0.27470000
H    2.82634900  -2.04496000  -0.04150600
H    2.59545600   2.01840800  -0.72281300
H    4.88571300   0.48268700   0.70930600
H    6.34764000   4.45674700  -0.07380300