15

C    1.13314900   1.17823000  -0.29611300
C   -0.18414400   1.59786000   0.35727300
C   -1.36819500   0.79016500  -0.03689800
C   -1.44240200  -0.56342500  -0.21512000
O   -0.47043600  -1.45273600  -0.05147200
C    0.83732900  -1.33238100   0.14101400
C    1.59127500  -0.19650700   0.03522300
H    1.92122600   1.89279400  -0.01964000
H    1.05666600   1.24917400  -1.39963100
H   -0.09957800   1.55249800   1.46148700
H   -0.38268300   2.65496600   0.13088000
H   -2.32878100   1.30377400  -0.14555800
H   -2.38279500  -1.06556300  -0.44925700
H    1.28593200  -2.30887800   0.33215300
H    2.66614800  -0.36637100   0.15401000