16

C    0.82641800  -0.28716800   0.37543000
C    2.25563500   0.13276900   0.09434900
C    2.85805900  -0.12029900  -1.26844700
C    2.15364200  -0.13148000  -2.44736200
C    2.47264000   1.53587100  -0.33263000
N    3.65178300   2.11369700  -0.11542200
O    3.64275300   3.36458500  -0.49236800
H    0.51780600   0.08990600   1.35949200
H    0.75620100  -1.38280800   0.39057500
H    0.11765700   0.09829800  -0.37060700
H    2.96502300  -0.16824300   0.87394600
H    3.94047000  -0.27685200  -1.29242400
H    1.07932500   0.06753900  -2.48961800
H    2.65774100  -0.37207400  -3.38705300
H    1.66247300   2.10980300  -0.80475700
H    4.52726800   3.72053100  -0.29631000