15

N    1.88503100  -0.76008900  -1.07100100
C    2.90332300  -0.22498100  -0.28925100
C    3.17485200   1.22051400  -0.37885200
C    4.25403900   1.77336500   0.22270300
C    4.64471500   3.21790400   0.14243500
O    5.31682600   3.64669500   1.27897500
H    1.65530800  -1.75027900  -1.01749700
H    1.32078100  -0.18964800  -1.69868700
H    3.84099300  -0.82287600  -0.43751900
H    2.70261400  -0.49277400   0.78757300
H    2.47652100   1.85379700  -0.93958100
H    4.94269600   1.14769700   0.80647600
H    3.77015900   3.84283600  -0.12173700
H    5.34814500   3.30728900  -0.70711500
H    4.68680700   3.84239400   1.97931000