18

C    1.29413100  -0.35648500  -0.45780500
C    2.67398500  -0.23534600   0.18033300
C    3.25643400   1.17403200   0.00476600
C    4.65502100   1.24670700   0.62463400
C    5.25273400   2.65197200   0.51082800
N    5.35110100   3.30166600  -0.61870100
O    5.63242500   3.08983100   1.61326800
H    0.89935700  -1.37181100  -0.31465300
H    1.33072300  -0.16255400  -1.54029800
H    0.57968300   0.34809100  -0.00693500
H    3.36218000  -0.97267300  -0.26438800
H    2.61495500  -0.46848700   1.25569900
H    2.59315300   1.91157500   0.48442000
H    3.29843600   1.42338600  -1.06875100
H    5.39663800   0.59477000   0.12795300
H    4.63544100   0.96348400   1.68743600
H    5.01634000   2.88093100  -1.48093400
H    5.75891900   4.23398200  -0.66091300