14

C    0.91940100   0.05796100   0.00372900
C    2.69171500  -0.05363000  -0.03878700
C    3.03306600  -0.85400600   1.21381200
O    2.94276300  -0.74915300  -1.15993700
C    3.02249400   1.33833800  -0.04840300
C    3.26835900   2.53199000  -0.04677000
H    0.62100300   0.60908800  -0.89344800
H    0.68554000   0.57262200   0.94061000
H    0.64607700  -1.00190900  -0.01834000
H    2.67294900  -0.35066200   2.11796800
H    4.13049600  -0.93198900   1.25270300
H    2.61051500  -1.86396600   1.14078000
H    3.10356300  -0.18258200  -1.93205000
H    3.50642600   3.58610700  -0.04124900