16

C    0.99423100   0.95032300   1.15069300
C    1.83185600   0.38505300   0.18188700
C    3.09629900   0.97040400  -0.30098200
C    4.30932900   0.03106900  -0.09339200
C    4.74205500  -0.06717500   1.39008000
C    3.55977700  -0.25992500   2.21642300
N    2.50583700  -0.31012000   2.70287000
H    0.08288200   0.43755500   1.46880500
H    1.21080900   1.93279200   1.58173300
H    1.53698100  -0.58794000  -0.23231200
H    3.27805900   1.96552100   0.13203000
H    2.97612800   1.09734100  -1.39603000
H    5.15886100   0.40879200  -0.67715800
H    4.07716800  -0.97294400  -0.47977000
H    5.24709800   0.85208000   1.72556000
H    5.44665900  -0.90082000   1.53096900