14

C    1.12683400  -0.05275300  -0.75551100
O    2.48666800   0.02848600  -0.27520000
N    3.00946200   1.19888600  -0.37522700
C    4.26213700   1.19995700   0.08646000
C    4.96961900   2.38057600   0.05264200
C    5.63375500   3.41893600   0.04104800
C    6.40126800   4.63326400   0.00860600
H    0.83558400  -1.09596800  -0.60561900
H    1.11377600   0.22363300  -1.81764800
H    0.50528600   0.63095400  -0.16308000
H    4.70532400   0.27393500   0.48133800
H    5.75754100   5.50242600   0.21370000
H    6.81073400   4.75610500  -1.01064000
H    7.23998000   4.59435100   0.71830200