17

C    0.97810900   0.00863500   0.02067900
C    2.49588800  -0.07361400   0.10925100
C    3.15312500   1.30944000  -0.17256500
C    4.63243800   1.21042800  -0.05919000
C    5.31642900   1.51633900   1.13049600
C    5.39106400   0.73716600  -1.12963900
C    6.05228900   0.32366900  -2.07497600
H    0.53910800  -0.97929800   0.21739700
H    0.65111500   0.33140300  -0.97843400
H    0.56754800   0.71131800   0.76044800
H    2.88824700  -0.80175300  -0.61907000
H    2.80290600  -0.42434800   1.10767100
H    2.77584500   2.04695900   0.55166100
H    2.87660500   1.63560900  -1.18621700
H    4.76294400   1.86519700   2.00789900
H    6.40354900   1.41974100   1.20027900
H    6.63675900  -0.04043300  -2.90882800