15

N    2.97793800  -0.78749300   0.49338200
C    2.12444700   0.27626800   0.18638300
C    2.70756600   1.64729300   0.25912100
C    1.90961700   2.74071300   0.12485900
C    4.19290100   1.76547100   0.48421600
O    4.70374900   3.01678300   0.22875700
H    2.77888900  -1.71776300   0.13537600
H    3.61129500  -0.74927300   1.28769900
H    1.26848800   0.31003100   0.92176900
H    1.61526300   0.09414300  -0.77770000
H    0.82374300   2.65872600   0.02634100
H    2.35853900   3.73668200   0.10756200
H    4.66859500   0.94911300  -0.11357500
H    4.42076000   1.51930500   1.53865800
H    4.79914200   3.15360300  -0.72038000