12

O    1.27583600  -0.51007400   0.28653700
N    2.52317400  -0.36759600  -0.00760900
C    2.97811100   0.88387300   0.04382900
C    2.12875900   2.01924800   0.10344900
C    2.58558800   3.31963900   0.06558100
C    4.49461700   0.94625600  -0.03935900
O    5.09949900   1.95042900   0.19161700
H    1.05410500  -1.45162100   0.15130800
H    1.05233200   1.83036600   0.16997300
H    3.62951100   3.56044400  -0.15411700
H    1.89056500   4.14258400   0.25825700
H    4.97340000  -0.01304400  -0.33259600