20

C    2.94499800  -1.03668200   1.10609200
C    2.46732500  -0.03365800   0.10018100
C    1.41999600  -0.27181000  -0.70795800
C    3.18893500   1.29809300   0.02970900
C    3.39424000   1.89230800  -1.37435600
C    2.24917200   2.34718400   0.86713200
N    4.40467600   1.28822900   0.72669800
H    3.98002200  -1.35692200   0.88974100
H    2.31220000  -1.93190400   1.10256900
H    2.92355900  -0.63195300   2.13413700
H    0.91226300  -1.23861100  -0.68472100
H    1.03699600   0.46209600  -1.41991300
H    3.97198600   1.19470700  -1.99526500
H    3.92800400   2.85188400  -1.31300000
H    2.43134900   2.08242300  -1.86067700
H    2.06493100   1.96014800   1.87629500
H    1.30959000   2.42751900   0.30969400
H    2.75877800   3.31741500   0.90760500
H    4.57281300   0.66144100   1.51226400
H    5.08517700   2.03269700   0.58011100