17

C    0.91081400   0.05330400   0.04337700
C    2.43210500  -0.00982400   0.09180900
C    3.14347200   1.10879900   0.87519900
O    4.42972100   0.57489700   1.16779200
C    4.30101800  -0.77153900   1.35547200
C    3.09023900  -1.22209600   0.64346700
C    2.67832500  -2.54781800   0.53397300
H    0.48283200  -0.75979000  -0.55883800
H    0.59616500   1.00037300  -0.41463800
H    0.48629000   0.00582800   1.05670800
H    2.83292100  -0.01029100  -0.95310300
H    2.60377100   1.33570900   1.81355400
H    3.27246200   2.03562100   0.30533300
H    5.23955700  -1.31707500   1.14635600
H    4.05191300  -1.03759400   2.42835000
H    1.87037700  -2.82810000  -0.14861800
H    3.15777100  -3.34054100   1.11693100