19

C    1.40209000   0.73130900   0.20359300
C    2.83556400   0.17236600   0.23212900
N    3.79151900   1.21447100   0.47403600
C    4.74827700   1.68465300  -0.47585600
C    5.39022700   2.99110300  -0.09125000
C    6.47733600   3.03377900   0.93374000
N    6.77848400   3.08384600  -0.47854400
H    0.71647800  -0.11082700   0.04111400
H    1.27667700   1.44938900  -0.61770900
H    1.13592500   1.21263700   1.15480200
H    3.09559300  -0.32204100  -0.71337500
H    2.92920100  -0.55564900   1.05756600
H    3.78188200   1.66860900   1.39482100
H    4.26094500   1.71378400  -1.46918000
H    5.53743500   0.90355100  -0.57412200
H    4.74484900   3.87274500  -0.18615100
H    6.78863500   2.11852900   1.45034100
H    6.55737900   3.94479600   1.53492600
H    7.03691400   4.01390800  -0.80257100