13

C    0.93489800  -0.11772500   0.22528200
C    2.35864200   0.13984000  -0.25229300
C    2.81915800   1.50842300  -0.15840200
N    2.33673700   2.53175200   0.56192200
C    3.15158500   3.51666700   0.30164400
N    4.17562300   3.15579800  -0.57965900
O    3.93071900   1.88936900  -0.84515700
H    0.73610200  -1.19518900   0.18426300
H    0.20936200   0.39244500  -0.42257300
H    0.78728200   0.22562200   1.25746600
H    2.57945800  -0.22780200  -1.27211100
H    3.09891600  -0.42385400   0.37084600
H    3.10052600   4.53309000   0.70051400