18

C    1.97124000  -1.13109700  -0.52335000
C    3.13024400  -0.89919700   0.44167500
C    3.78394500   0.47898900   0.28783600
N    4.62219000   0.83557800   1.35245500
C    5.17040700   2.14133100   1.51166900
C    4.61108100   0.57432000  -1.09152100
O    5.54051400   1.28328800  -1.25780100
H    1.52351800  -2.11475100  -0.33057000
H    2.27892800  -1.12481700  -1.57959100
H    1.18328100  -0.37532400  -0.39045900
H    3.89854300  -1.68231900   0.32408000
H    2.75783300  -0.97151700   1.47482400
H    3.03091200   1.27753100   0.12971900
H    5.03411300   0.07289600   1.89465100
H    4.39371900   2.90747000   1.37209200
H    5.92456700   2.29309700   0.70287900
H    5.65740400   2.24260700   2.48827500
H    4.18245400  -0.09011500  -1.87597400