14

N    0.97210500  -0.15456200  -0.01296300
C    2.12437000  -0.08563000   0.00236200
C    3.57160200   0.05886800   0.04353700
C    4.19293100   1.21227700   0.84635900
C    5.58188600   0.64655200   1.15935100
C    5.29439500  -0.83365200   1.32334800
O    4.16393200  -1.13229700   0.57019100
H    3.95885400   0.07074600  -1.00701000
H    3.59822400   1.39142600   1.75467200
H    4.21271500   2.13612600   0.25564400
H    6.27738100   0.79525600   0.31741200
H    6.03721400   1.08193500   2.05711600
H    6.06456500  -1.59510700   1.08246700
H    4.98483200  -1.12334900   2.36732000