13

C    1.01876500   0.00961200  -0.05274700
C    2.46275800  -0.23214800   0.01171400
C    3.29352900  -0.69283400  -1.10323100
C    3.46953300   0.79979600  -1.20617700
C    4.50543900   1.48185000  -0.56164900
N    5.36840100   2.04262000  -0.00921600
H    0.72447300   0.91548200   0.50019300
H    0.56161400  -0.83121500   0.51203700
H    0.60764100   0.00439800  -1.07004700
H    2.95262400  -0.13716200   0.98973600
H    2.74953700  -1.10312400  -1.96226800
H    4.20924500  -1.22859300  -0.82764200
H    2.81073800   1.38209700  -1.86069000