15

C    0.97447800  -0.13840600  -0.09232200
C    2.43986000  -0.16885800   0.04488900
C    3.08530700   1.65693400   0.03082900
C    2.49565500   2.37179600   1.19866300
C    4.48258300   1.42482900   0.00911900
N    5.62594600   1.19542600   0.00251800
H    0.71159200  -1.22186900  -0.11986600
H    0.61845000   0.28303100  -1.04225400
H    0.44503700   0.28872100   0.76783200
H    3.01180600  -0.54580800  -0.81197200
H    2.85398500  -0.45731900   1.01968100
H    2.66876600   1.87597900  -0.96468700
H    2.83653700   1.97004500   2.16348700
H    1.40129600   2.40664300   1.14892000
H    2.86247800   3.41675800   1.13962100