15

C    0.92779500   0.03389500   0.01094000
C    2.44828400  -0.05703200   0.01498800
C    3.09011200   1.34281500   0.00300800
C    4.51563600   1.38647600   0.00235900
C    5.76057600   1.41637700   0.00064300
C    7.09565600   1.45763400  -0.00096500
C    8.32949800   1.49525900  -0.00250000
H    0.49005300  -0.97299300   0.02039200
H    0.55662100   0.55124900  -0.88630200
H    0.55300200   0.56949800   0.89587900
H    2.80483300  -0.61631700  -0.86325900
H    2.80096600  -0.59887900   0.90564800
H    2.76060400   1.96197800   0.86577900
H    2.76392400   1.94351600  -0.87447900
H    9.41156900   1.52860800  -0.00384200