11

O    2.51884800  -1.24502300   0.82204600
C    2.73756300  -0.28636200  -0.02012800
O    2.36575400  -0.28725500  -1.17157700
C    3.38444600   1.00663900   0.31290600
C    4.42038200   1.47040800  -0.48321300
C    5.04217700   2.68682500  -0.24954500
C    5.60555100   3.75831600  -0.06423700
H    2.89296400  -1.09106400   1.70265300
H    2.92570400   1.64734000   1.07729200
H    4.78086500   0.85514100  -1.31813000
H    6.10210000   4.70590000   0.09562300