15

C    3.25928300  -0.94009100   2.29457200
O    2.32526500  -1.36878000   1.28512500
C    2.42957200  -0.94109400   0.08566300
N    3.35669400  -0.11664200  -0.29045800
N    3.52203800   0.35272500  -1.47289300
C    4.35355900   1.14678200  -2.00893200
C    4.29394800   1.51581600  -3.44303300
H    2.95014900  -1.44345200   3.21446000
H    3.19879100   0.15073100   2.40887100
H    4.27437600  -1.24536800   2.00647100
H    1.67478500  -1.32026700  -0.61676800
H    5.14207800   1.56578500  -1.36255900
H    3.46175900   1.02555100  -3.96104300
H    5.24701700   1.24324100  -3.92264800
H    4.19640800   2.60941400  -3.52766500