17

C    1.02191200   0.06349300  -0.45923600
C    2.45055100  -0.00016200   0.10086200
C    2.82911600  -1.30559000   0.81424100
N    3.26344300  -0.83307900   2.12857800
C    3.75358100  -1.68487600   3.18492700
N    3.17595200   0.46363900   2.29760100
C    2.71974200   0.98978200   1.18335900
H    0.89505200  -0.69616100  -1.24203200
H    0.82660800   1.04628100  -0.90871300
H    0.27639200  -0.11585500   0.32871600
H    3.15704200   0.21075800  -0.72368600
H    3.65109900  -1.86923900   0.34532500
H    1.98085600  -1.99787400   0.95011800
H    3.00024100  -2.45639600   3.40467000
H    3.94880200  -1.06783300   4.06794600
H    4.67753600  -2.18049000   2.84782700
H    2.57233800   2.07098600   1.12424900