19

C    0.89331000  -0.15354200   0.09647100
C    2.39581600   0.06271000   0.17243100
C    2.92694800   1.43343000   0.03454600
C    2.09969700   2.55698700  -0.15493100
C    4.39931300   1.65000900  -0.02242800
C    4.76455700   2.07736200  -1.45297600
O    3.88073800   3.11594900  -1.79632800
H    0.66701500  -1.21825800   0.23600200
H    0.48710400   0.14016500  -0.88255900
H    0.36092200   0.40098000   0.88263500
H    2.94516200  -0.54920600  -0.57376500
H    2.81182000  -0.31701600   1.12964300
H    1.07267700   2.44360000  -0.51515500
H    2.44330300   3.56080000   0.10209900
H    4.95733000   0.74858200   0.26336500
H    4.66387600   2.46819900   0.66972700
H    4.66278300   1.21081700  -2.12995800
H    5.81530700   2.40899700  -1.47839800
H    3.97279900   3.35670700  -2.72565700