15

C    1.02864900  -0.64874000  -1.60586500
C    1.65714900  -0.48819300  -0.42612700
C    1.91472800   0.87811500   0.18670700
N    3.23598900   1.11692400  -0.32962400
C    4.45689000   0.65160300   0.29806200
C    5.23280700  -0.19765200  -0.60827200
N    5.81414400  -0.86617600  -1.34720300
H    0.83305300  -1.65070000  -1.99749800
H    0.65761900   0.19776700  -2.19263200
H    2.07193300  -1.34645700   0.11207600
H    1.92138400   0.86385100   1.28425000
H    1.22316100   1.64775900  -0.17911300
H    3.31663700   1.48139100  -1.28385500
H    4.21402300   0.11484200   1.22673100
H    5.05643600   1.53987600   0.57710500