16

C    2.01035600  -0.71760300   0.73209400
O    3.16976100   0.09475400   0.90557900
C    3.49373900   0.96592700  -0.03077300
C    2.37798500   2.55796600   0.35173400
N    2.64561100   3.57574900  -0.46995500
C    4.81834000   1.49375400   0.04949700
C    5.92984000   1.97029200   0.10898000
H    2.16988500  -1.61954800   1.33227200
H    1.87613200  -0.98773800  -0.32575700
H    1.12396500  -0.18616300   1.11127100
H    3.10309700   0.77317600  -1.04351300
H    2.72562700   2.65884600   1.38443100
H    1.40702100   2.07376700   0.20705000
H    3.42096800   4.20665900  -0.28699400
H    2.17230600   3.68231800  -1.36223400
H    6.93161900   2.36541500   0.16096600