19

C    0.29295100   0.89879900   0.31270300
C    1.67501600   1.02757900  -0.15773100
C    2.77350600   1.30465600   0.65639200
C    4.13962800   1.33764100   0.17370600
C    4.50193800   2.89223500  -0.17545200
C    5.91817600   2.95560400  -0.61212800
C    6.90417400   3.44431000   0.15601000
H   -0.34275500   1.61611000  -0.24132900
H    0.17660100   1.05185100   1.39229400
H   -0.10679700  -0.09160400   0.02660900
H    1.86252500   0.87765000  -1.22953800
H    2.58631000   1.55024800   1.70939400
H    4.29072000   0.75827500  -0.74772100
H    4.85536200   1.03384300   0.94816600
H    4.31864500   3.49792600   0.72268900
H    3.81527800   3.20879700  -0.97202700
H    6.14482000   2.57898300  -1.61543800
H    6.71904800   3.80518600   1.17258800
H    7.92634900   3.52312800  -0.22152900