15

C    0.90938400   0.01475700   0.02701200
C    2.43160300  -0.04016900   0.02930900
C    3.04084600   1.37432600  -0.00009400
C    4.47582000   1.42491600  -0.00010800
C    5.70159600   1.45709700   0.00013600
C    7.07723100   1.46765700   0.00085800
O    7.78615600   2.48592600  -0.02061800
H    0.49322200  -1.00112600   0.04816600
H    0.52558300   0.51472600  -0.87481300
H    0.52425300   0.55236000   0.90633900
H    2.79704000  -0.60260100  -0.84347200
H    2.79572100  -0.56527800   0.92557800
H    2.70634600   1.98239900   0.86348800
H    2.70759700   1.94543400  -0.88902000
H    7.68415300   0.52609100   0.02163000