19

C    3.34135800  -1.32896800  -0.35612000
C    2.54193700  -0.07149000  -0.05580300
N    1.90159300  -0.07847000   1.20938500
C    3.45145400   1.19082200   0.03043900
N    3.32849800   2.22227900  -0.91524300
C    2.87390700   2.57209600   0.39070800
C    3.67745600   3.53244800   1.22473000
H    3.87317500  -1.21521400  -1.31078900
H    2.67615200  -2.19947700  -0.42710900
H    4.08754900  -1.51937100   0.43013700
H    1.77720600   0.09590400  -0.82851200
H    2.39541800  -0.40255200   2.03712800
H    0.97928600   0.31956000   1.35210800
H    4.44875800   0.97760800   0.43750200
H    2.69819100   2.15265100  -1.71474600
H    1.78285000   2.63827000   0.50935300
H    4.75401300   3.41068000   1.04578600
H    3.46784700   3.37076300   2.29076800
H    3.39660200   4.56469200   0.97159500