15

C    1.84310800  -0.67903300   0.96658100
C    2.40187100  -0.02312500  -0.11636800
C    3.08488000   1.28547000  -0.03332900
C    4.44143000   0.60141700   0.02511300
C    5.05298700   0.24272100   1.18765400
C    5.08808600   0.30126500  -1.30614200
O    4.47259400   0.37304200  -2.32977200
H    1.27139900  -1.59997900   0.82041000
H    1.91727500  -0.28024000   1.98306400
H    2.38214600  -0.49941900  -1.10378000
H    2.85528900   1.86877200   0.86515800
H    2.99203800   1.87439900  -0.95380700
H    4.57289800   0.35804400   2.16316000
H    6.07451200  -0.15211700   1.17708800
H    6.16396700   0.01535900  -1.26103100