16

C    3.40600200  -0.13169200   1.50794500
C    2.81118700   0.24528100   0.15128100
C    2.73595100   1.71328700  -0.13538500
C    1.67290100   2.35693600  -0.71267900
C    3.98113800   2.53780400   0.01778200
N    4.52303800   2.93038200   1.14764000
O    4.38609300   2.72338100  -1.12885200
H    3.34062200  -1.21965100   1.64069600
H    2.85175900   0.33207400   2.33791300
H    4.46933500   0.13706600   1.58661000
H    1.79551900  -0.16254000   0.03138900
H    3.40739000  -0.21049900  -0.66163800
H    0.70709800   1.85040500  -0.80169200
H    1.74635400   3.38713900  -1.07102900
H    4.09172800   2.70634800   2.03825900
H    5.39607600   3.45391100   1.14342600