18

C    1.78694200  -0.56166300  -0.97320600
O    2.19410100   0.78120100  -1.25014400
C    3.29720100   1.22384300  -0.69929600
C    3.62227700   2.66198900  -0.87394200
C    3.06944300   3.07406800   0.44385000
C    1.60620600   3.28610600   0.61211300
N    3.88188600   3.26542200   1.46529400
H    0.88638400  -0.74143200  -1.56813800
H    1.55971000  -0.67391400   0.09700400
H    2.57684500  -1.26493200  -1.27295800
H    3.92434500   0.54746500  -0.10790300
H    3.07102800   3.09567300  -1.71918400
H    4.69962300   2.85363300  -0.97774000
H    1.03454700   2.61185500  -0.03847100
H    1.37038200   4.31864100   0.30143700
H    1.28089100   3.15755900   1.65353300
H    4.89152700   3.25437900   1.35693500
H    3.52217500   3.43644400   2.39957600