13

C    3.17277400  -1.04943500   0.63578200
O    2.43473100   0.17358400   0.35977200
N    3.11218300   1.25440700   0.22136100
C    2.48786000   2.48657200  -0.04744000
C    3.50956800   3.36690600  -0.12266600
C    4.71255700   2.57348600   0.11375200
N    4.42551500   1.29631900   0.31793000
H    2.38488500  -1.80395700   0.70580500
H    3.71804900  -0.93134600   1.58076000
H    3.86172600  -1.24586200  -0.19542600
H    1.40600900   2.54934200  -0.14443600
H    3.45746300   4.43609200  -0.31660200
H    5.74909300   2.91214700   0.13565700