8

O    0.97181500  -0.10294800   0.00000000
C    2.20809100   0.02385500   0.00000000
C    2.88126400   1.22248100   0.00000000
C    3.51382800   2.27687700  -0.00000000
C    4.20934800   3.43915200  -0.00000000
C    4.83251300   4.48439100  -0.00000000
H    2.74364700  -0.96005500   0.00000000
H    5.38625400   5.41309100  -0.00000000