18

C    3.28942900  -1.03570900   0.30870800
C    2.45968500   0.04447600   0.94063400
C    2.92094000   1.59862600   0.57152100
C    1.95170400   2.56986700   1.22450500
N    4.24065100   1.77188500   0.98281800
C    5.35804200   1.45344000   0.17152800
O    5.19947600   1.08378700  -0.95450700
H    2.75805600  -1.99138400   0.45803300
H    4.28162200  -1.14693300   0.76764800
H    3.40564100  -0.90264100  -0.77704300
H    2.44596800   0.00167500   2.03936600
H    1.42710900   0.05793300   0.56186200
H    2.90164200   1.58982200  -0.53099600
H    1.97589300   2.50269800   2.32260700
H    0.93021700   2.34893500   0.89115900
H    2.19897400   3.59805900   0.92335500
H    4.42042000   2.08253300   1.94261000
H    6.33193700   1.57995500   0.68156800