17

C    1.36960500  -0.19805200  -0.26306900
O    2.29312800   0.24660200  -1.25125000
C    2.80253900   1.46008500  -1.17585800
C    4.23459000   1.37417000  -0.09793300
C    5.18234000   0.34039800  -0.65995400
C    4.69162400   2.70832900  -0.01572500
C    5.07473800   3.86736700   0.02457400
H    0.76164100  -0.98040200  -0.73063900
H    0.74046300   0.63277800   0.08720800
H    1.93444800  -0.63725700   0.57617400
H    2.17147800   2.21878100  -0.68784300
H    3.26268100   1.75754800  -2.12632900
H    3.71022200   1.06599800   0.82251900
H    5.61419900   0.66211500  -1.61774300
H    4.67914500  -0.62544300  -0.79093700
H    6.00998600   0.20972200   0.05545000
H    5.42655000   4.88654300   0.07720900