15

C    0.83339000  -0.01364000   0.24148700
N    2.24107900  -0.00561600   0.46548900
C    3.16085300   1.06287400   0.79131200
C    4.18128700  -0.01946700   1.26513600
O    5.47074800   0.02018900   0.83030200
C    3.19016400  -1.07599000   0.68315800
H    0.55494400  -0.89558300  -0.35131700
H    0.52928200   0.91750200  -0.25567300
H    0.31446700  -0.07272900   1.21860500
H    2.75237100   1.78841400   1.51500900
H    3.46651500   1.61645200  -0.11764200
H    4.20585900  -0.07461800   2.36254000
H    5.53199500   0.06959200  -0.13004000
H    3.50959400  -1.52649800  -0.27656800
H    2.80267700  -1.88171100   1.32942900