15

N    0.82324100   0.73441000  -0.90367000
N    2.11761100   0.84311600  -0.82682200
C    2.92148300   1.31489200   0.03578400
C    4.39272600   1.23057200  -0.11212600
C    5.07089500   2.60858700   0.05867300
C    6.52233300   2.48952700  -0.03530400
C    7.72078200   2.37267800  -0.11619600
H    0.35932800   1.27463000  -1.63937800
H    0.41588700  -0.17319400  -0.65981100
H    2.48703700   1.80984500   0.92257800
H    4.65610900   0.76740900  -1.07269200
H    4.74477100   0.55966000   0.69287800
H    4.79846100   3.04665100   1.03360200
H    4.70861400   3.30272700  -0.71703900
H    8.79053000   2.28220200  -0.18583500