15

C    0.96060500  -0.07044300   0.12916900
C    2.45270400   0.19533000  -0.10407200
N    2.88728700   1.37936700   0.63304300
C    3.87370300   1.12564000   1.39476200
N    4.25302800  -0.23656500   1.31611500
C    3.47963700  -1.32378500   1.84552700
C    3.39765700  -0.89302100   0.36811500
H    0.64172100  -0.94145300  -0.45814500
H    0.38906500   0.80958800  -0.19288600
H    0.74666200  -0.25466000   1.19100400
H    2.60631500   0.39274400  -1.18015200
H    4.38673900   1.81450700   2.06992600
H    4.01016100  -2.27268300   1.98155100
H    2.73612600  -1.06153600   2.60527500
H    3.86057500  -1.60860800  -0.32049600