17

C    0.39202700   1.85034100  -0.55614300
N    1.65185300   1.12471600  -0.49409100
C    2.76838300   1.58071900   0.00599400
N    2.83943300   2.85064000   0.41397200
C    4.00071300   0.69314800   0.04524400
C    3.97073500  -0.39520100  -0.99155100
C    3.68743300  -1.67026500  -0.71594000
H   -0.23771600   1.59704900   0.30873000
H   -0.12993200   1.57037100  -1.47844800
H    0.60070400   2.92924600  -0.54794300
H    1.69025900   0.16216600  -0.84238700
H    3.37733200   3.02315100   1.27152900
H    4.03911500   0.27956500   1.06916500
H    4.88748700   1.33451300  -0.07188500
H    4.21277200  -0.09593300  -2.01699900
H    3.46792500  -2.00998700   0.30171100
H    3.69756000  -2.43102400  -1.49999700