17

C    0.49977000   0.23579400   0.00318100
C    1.99501600  -0.00418400   0.09438900
O    2.39684300  -0.81739300   1.13045000
C    2.68247300  -0.40732800  -1.17516500
C    3.72764600  -1.30379800  -1.20546300
C    2.86105100   1.25182900  -0.05143200
C    4.02315300   1.42217100   0.64951300
H    0.23878400   0.86077900  -0.86126400
H    0.14694000   0.74768800   0.91066900
H   -0.01849900  -0.72840800  -0.08908800
H    1.83598600  -0.68146400   1.90272400
H    2.30090600   0.01891700  -2.10721100
H    4.12448600  -1.73069400  -0.28101600
H    4.14323300  -1.63462600  -2.16043900
H    2.50117700   2.03525400  -0.72481300
H    4.40361100   0.62954600   1.29958000
H    4.56509000   2.37029700   0.60552300