15

C    0.90959900   0.22344200  -0.20272700
C    2.36683500   0.10829200  -0.13196100
C    2.98433800  -1.20336400  -0.44695500
O    2.01684400  -2.12757000  -0.76687100
C    3.16742100   1.21704100   0.22704200
C    4.54597900   1.17266800   0.31105100
C    5.76989800   1.16457300   0.39424200
H    0.52673900   1.21949300   0.04245600
H    0.46463300  -0.54987200   0.45181200
H    0.58109900  -0.09611000  -1.20988400
H    3.60373100  -1.48963500   0.43388500
H    3.72203300  -1.02612500  -1.26301900
H    2.41239700  -2.98103600  -0.97208500
H    2.67366500   2.16885500   0.45289100
H    6.84772200   1.16622700   0.46987500