15

C    0.74841400  -0.09401300  -0.28990800
C    2.10567400  -0.56837500   0.14434700
C    2.36900500  -1.65582800   0.89495200
C    3.25471900   0.23136100  -0.25434800
O    3.21479400   1.29582400  -0.85360500
C    4.70709200  -0.11804700  -0.09086800
C    5.55149100   0.74323900   0.51273600
H    0.54548800   0.91728900   0.09401700
H   -0.02997200  -0.76883100   0.08558300
H    0.67827300  -0.05738400  -1.38721100
H    1.55677900  -2.29729900   1.24808400
H    3.38381900  -1.93725300   1.19053700
H    5.02923100  -1.04282800  -0.58398500
H    5.22504400   1.71893100   0.88381900
H    6.59315300   0.45510400   0.68285800