11

O    1.27655600  -0.06496600   0.82643900
C    2.36541900  -0.06648200   0.25099500
C    3.27502800   1.12831100  -0.12246100
C    4.21469100  -0.00490400  -0.66016100
N    3.17720800  -0.97044600  -0.23417700
C    4.48217400  -0.00085000  -2.09248400
N    4.68901500   0.01010700  -3.22813900
H    3.62823700   1.69022500   0.75308100
H    2.81340500   1.78211600  -0.87597200
H    5.14683100  -0.11206600  -0.08508000
H    3.11462300  -1.99089300  -0.26204800