15

C    1.01580200   0.00847500   0.11427900
C    2.51263100   0.20421300   0.13765900
C    2.87147300   1.58699600  -0.66774700
O    4.21654100   1.68915600  -0.70629700
C    4.93361700   2.38362600   0.29274300
H    0.81268400  -0.91645400   0.68146200
H    0.62474700  -0.13637600  -0.90189700
H    0.47108300   0.82607900   0.60555900
H    3.06456400  -0.59581700  -0.37312600
H    2.91643000   0.35155400   1.15028100
H    2.38495200   2.41326800  -0.12528800
H    2.50425000   1.42102700  -1.69132000
H    5.56085200   3.12050000  -0.23787800
H    5.61535300   1.65428900   0.76207300
H    4.26466300   2.86497900   1.01800800