11

O    2.52183800  -1.09960700   0.06659500
C    2.15246000   0.08464700   0.00898500
C    2.92444200   1.24458100  -0.00360800
N    2.36567900   2.46580200  -0.06983400
C    3.36687500   3.32731100  -0.06263800
C    4.60288200   2.63593200   0.01037200
N    4.30702400   1.33859700   0.04637000
H    1.04386300   0.22434200  -0.03890000
H    3.22000900   4.40589500  -0.10773600
H    5.62729500   3.00600500   0.03641200
H    4.97935000   0.57613800   0.10021200