16

C   -1.20551500  -0.00189900   1.11015100
C   -0.73972100  -1.02389600   0.04654000
C    0.84212000  -1.19761500   0.22366600
O    1.46357700  -0.00054600  -0.07839500
C    0.84254200   1.19580800   0.22733600
C   -0.73936300   1.02319000   0.04967700
N   -0.94913300   0.00117300  -0.92285100
H   -0.69389000  -0.00347500   2.08051300
H   -2.29470800  -0.00190400   1.23836700
H   -1.21809600  -1.99928500  -0.12016600
H    0.98235300  -1.52777400   1.26811600
H    1.22953200  -1.95918100  -0.46546100
H    1.23022200   1.95934900  -0.45945100
H    0.98288800   1.52271300   1.27279400
H   -1.21739200   1.99925500  -0.11403800
H   -0.93229500   0.00273900  -1.94598800