11

C    1.24443700  -0.39256400  -0.43168600
C    2.54830800  -0.40877200  -0.05014100
O    3.23018200   0.73057000  -0.11302100
C    4.50918800   0.83571100   0.23358800
C    5.10004400   2.05441700   0.12617500
H    0.65698700  -1.31168000  -0.39180500
H    0.77410500   0.53101700  -0.77912500
H    3.08358800  -1.29503400   0.30757700
H    5.00993600  -0.07244800   0.58635300
H    4.53762900   2.91954600  -0.23461100
H    6.14914200   2.17396500   0.40287700