17

C   -0.17071800   0.32927600   1.68829400
C    0.80156500   0.98881700   0.73335700
N    1.78813100   1.88562400   1.35909300
C    2.76877400   2.57018300   0.53418900
N    1.77765300   2.06405300   2.66358700
C    2.63972800   2.88202600   3.44483500
O    2.47682000   2.91785400   4.62192100
H   -0.84295200  -0.30554200   1.09574500
H   -0.80835900   1.05679900   2.21332200
H    0.32914200  -0.33281300   2.41168600
H    0.27130200   1.60082900  -0.01510600
H    1.38781200   0.23674900   0.17960600
H    2.59502100   2.27861100  -0.50699200
H    3.78855700   2.27346200   0.82336500
H    2.65258400   3.66105000   0.62440600
H    1.06342300   1.55510400   3.19028000
H    3.41157500   3.43192700   2.87516500