12

C    0.95752300   0.00992000  -0.00834000
N    2.41649000   0.05961700  -0.00038000
C    3.22168200   1.11773800   0.00256000
C    4.53534000   0.62576600   0.00841300
O    4.51830600  -0.68908900   0.00875200
C    3.20261400  -1.12622200   0.00396900
O    2.84098200  -2.24418800   0.00264100
H    0.56820500   1.03316500   0.00651900
H    0.61513800  -0.54304400   0.87663900
H    0.62325000  -0.51382600  -0.91410700
H    2.87547000   2.15146800   0.00055100
H    5.49586000   1.14155300   0.01229400