15

C    0.91732300   0.08373100  -0.00998700
C    2.40279300  -0.00248900  -0.00217600
C    3.30283800   1.08739500   0.00792600
O    4.57537800   0.67371600   0.01276500
C    4.54149700  -0.66033600   0.00612600
C    3.20883000  -1.14464000  -0.00333300
C    2.80364800  -2.57449000  -0.01328800
H    0.57109900   1.12437800  -0.00176600
H    0.49955300  -0.42850600   0.86998200
H    0.51009900  -0.41082300  -0.90494100
H    3.13843300   2.16587800   0.01230300
H    5.50349200  -1.17518900   0.00894900
H    1.71243900  -2.67815900  -0.00692800
H    3.21004900  -3.09925800   0.86506500
H    3.19729300  -3.08227500  -0.90748700