15

C    0.96250800   0.26121800  -0.24474000
N    2.38927500   0.29602400  -0.38026200
C    3.41002600  -0.63392500  -0.73347500
C    3.27520700   0.75458000  -1.34546100
C    4.37081500   1.82231000  -0.95438600
N    4.58742700   1.97070300   0.36057200
O    4.93325000   2.37771200  -1.85109900
H    0.57452500   1.28776100  -0.22446800
H    0.69197600  -0.28610400   0.66709600
H    0.53382000  -0.26603000  -1.11901900
H    3.08003300  -1.53009800  -1.27321500
H    4.23108700  -0.77910000  -0.02055800
H    2.90068200   0.93257800  -2.36015800
H    3.98493800   1.55948900   1.06291700
H    5.29910500   2.63171100   0.65863000