12

C    0.87323700  -0.12598200   0.06373600
C    2.25655600   0.33024600  -0.13782800
C    1.11298900   1.36566800  -0.27665900
O    0.91998700   2.35510800   0.63686700
C    0.47656700   3.39424700  -0.05938800
N    0.36731100   3.16113100  -1.32907000
O    0.76925000   1.87470700  -1.48464600
H    0.49852700  -0.27334400   1.08143800
H    0.36343100  -0.66824300  -0.73867800
H    2.75860500   0.12192700  -1.08775300
H    2.89349600   0.51678100   0.73243200
H    0.24013900   4.33299800   0.44290900