15

O    3.17016300  -0.67234400   0.06412600
C    2.07280900   0.17102600  -0.02041000
C    2.58978000   1.58914600  -0.04703800
C    1.70066400   2.67333700  -0.13161400
N    3.90773900   1.70326300   0.01448500
C    4.71497700   2.87316400   0.01182500
N    5.96964100   2.86854800   0.07150900
H    2.91249000  -1.59978300   0.08900600
H    1.38480500   0.08237500   0.84278800
H    1.47188400   0.01704500  -0.93773700
H    0.62741900   2.47557000  -0.17770400
H    2.02818100   3.71323700  -0.15413500
H    4.38012800   0.78734800   0.07155200
H    4.16208000   3.81728700  -0.04716800
H    6.40309200   1.94122200   0.12443500