17

C    1.17852100  -0.16927200   1.04291200
C    2.64521400  -0.09037600   0.60237400
C    2.95745700   1.20922800  -0.04431800
N    3.45284500   1.28571300  -1.21169800
N    3.78956500   2.32950000  -1.92105500
C    3.59864900   2.48882600  -3.35159400
C    4.97283100   2.45237100  -2.75387900
H    1.00548100  -1.12270300   1.55812600
H    0.49811100  -0.12172000   0.18125000
H    0.91887900   0.64095900   1.73975400
H    2.91526400  -0.91340000  -0.07365600
H    3.30095000  -0.15804500   1.48859100
H    2.74786600   2.14783700   0.49513500
H    3.17905800   3.45569400  -3.64501000
H    3.21773300   1.60950700  -3.87888700
H    5.57855200   1.54692200  -2.85193200
H    5.51605500   3.39372100  -2.62823600