15

C    0.87843700  -0.06130100  -0.01505100
N    2.34048400  -0.04956000  -0.00341500
C    3.01242600  -1.35250400   0.01449700
C    3.00114100   1.08465700  -0.00899900
C    4.40955100   1.18550000   0.00145700
C    5.01908100   2.44633900  -0.00600700
N    5.52102500   3.49816200  -0.01230500
H    0.48828200   0.96208900  -0.02797600
H    0.51965200  -0.58618900   0.88229400
H    0.53400800  -0.60336100  -0.90779300
H    2.25451200  -2.14221600   0.01535700
H    3.62669500  -1.44598600   0.92099200
H    3.64216500  -1.46275900  -0.87940300
H    2.40580900   2.00272900  -0.02267300
H    5.06151800   0.30733800   0.01546500