19

N    0.95154200  -0.51727400  -0.22024200
C    2.20137700  -0.41643100   0.29585800
C    2.92530400   1.24211400   0.18154500
N    2.23135100   2.11516900   0.96410700
C    4.39071700   1.03674100   0.56340700
C    5.15578000   0.17525300  -0.39760100
C    5.79178900  -0.94904900  -0.06520100
H    0.12392500  -0.40380200   0.35401200
H    0.79963100  -0.68815500  -1.20832100
H    2.97531600  -0.94611700  -0.27809300
H    2.25592800  -0.59221100   1.37645300
H    2.76256000   1.42763900  -0.88993300
H    2.48493400   2.26429400   1.93552400
H    1.39451400   2.58057900   0.63297800
H    4.45989500   0.64067700   1.59037600
H    4.83684700   2.04642900   0.58019600
H    5.20614700   0.53633200  -1.43195800
H    5.79032700  -1.33137700   0.96064600
H    6.36048200  -1.51758200  -0.80432900