13

N    1.03922000  -0.40370500  -0.34558000
C    2.25670300  -0.25723000   0.19433700
O    2.69964500  -0.72129200   1.20373100
N    3.13469200   0.60549100  -0.59753400
C    4.43430600   0.87803700  -0.12655800
C    5.29333900   1.60934400  -1.01945000
C    6.04124100   2.22320400  -1.74597300
H    0.72832500   0.03669500  -1.20252600
H    0.37602600  -0.99020300   0.15362600
H    2.83447200   1.03379000  -1.47949000
H    4.87865700  -0.08407600   0.23327000
H    4.33556600   1.39406900   0.86658300
H    6.71191300   2.76780200  -2.39226300