18

C    0.82636100   2.00828500   0.48585300
C    2.22219100   2.57348800   0.51917600
O    3.13514400   1.55209300   0.03885100
C    4.40284200   1.74924900  -0.05828800
C    5.10228600   2.89832700   0.28038300
C    6.57817300   2.99271200   0.06829300
N    6.54467800   3.56284300  -1.25422800
H    0.12328900   2.77092900   0.84771800
H    0.74369500   1.12646300   1.13503300
H    0.53794200   1.72928000  -0.53639000
H    2.53542900   2.84454200   1.53959100
H    2.33050800   3.45145000  -0.13768300
H    4.93309400   0.86382300  -0.43229600
H    4.57946100   3.79564100   0.62039700
H    7.09347700   2.02372400   0.06189400
H    7.08204000   3.66027700   0.77654300
H    6.41253500   2.96948900  -2.06841800
H    6.35703000   4.55325700  -1.38438000