13

C    0.90417100   0.04268300  -0.04768100
C    2.34493100   0.21442600   0.21680900
O    2.71688300  -0.01768400   1.42347600
C    3.51837500  -0.80270100  -1.29988900
C    3.31997700   0.60258400  -0.83050800
H    0.68462600  -0.05159000  -1.11659200
H    0.40767700   0.95781400   0.32680800
H    0.49540200  -0.80297200   0.52248900
H    3.64798400   0.19360300   1.60853200
H    2.89014200  -1.22233400  -2.08897300
H    4.26531600  -1.44459400  -0.82633700
H    4.23184000   1.06239900  -0.42107500
H    2.86279200   1.24909600  -1.59175700