15

C    0.96990100   0.05461500  -0.01590000
C    2.45187200   0.02908800  -0.03362200
C    3.23225200   1.17953800  -0.17760400
N    4.56676600   1.18053300  -0.19656700
C    5.19348400   0.01246500  -0.07047100
N    4.58564500  -1.14525000   0.07197500
C    3.14200100  -1.28534000   0.10869300
H    0.56345100  -0.57187400  -0.82800400
H    0.57822800   1.07292200  -0.12758100
H    0.58774300  -0.37013200   0.92786300
H    2.74409900   2.15424100  -0.28338800
H    6.28910300   0.00420900  -0.08508800
H    5.15052600  -1.98837700   0.16129500
H    2.84352500  -1.77386700   1.05683600
H    2.81864800  -1.97655900  -0.69403700