19

C    1.67410700  -0.71014300   1.19238000
C    2.63582800  -0.11449500   0.21363300
C    2.57965200   1.17191900  -0.35686800
C    1.59060900   2.14688000  -0.21227200
N    0.42965100   2.04162000   0.46943200
C    3.76224200   1.56228200  -1.19533600
N    4.96123000   1.80813500  -0.28932300
H    1.44910700  -0.02956500   2.03008600
H    2.08229500  -1.63137200   1.62806000
H    0.71680300  -0.99449700   0.71616500
H    3.41977800  -0.78389600  -0.16263400
H    1.73244600   3.11441100  -0.70208800
H    4.77725900   2.59890800   0.34041200
H    0.12495300   1.16767300   0.87298700
H   -0.25630200   2.78095400   0.41325900
H    3.61326300   2.48430700  -1.77128900
H    4.07421900   0.76486700  -1.88434900
H    5.83394400   1.99190800  -0.79935300
H    5.09622600   0.98378300   0.31234700