14

C    2.72465400   0.27151100   0.91956600
C    2.24762700   0.05075300  -0.55696200
C    2.50210300   1.51864300  -0.73894500
C    2.56027400   2.76653200  -1.43648200
C    3.02142900   3.66726800  -0.50209600
C    3.24468700   2.97868300   0.75811900
N    2.91173300   1.69697600   0.53656900
H    3.66589000  -0.21594400   1.20179500
H    1.96385900   0.14078600   1.69883400
H    1.19711800  -0.25182400  -0.68090100
H    2.88192500  -0.60473400  -1.17217500
H    2.29768800   2.95889400  -2.47413200
H    3.20044300   4.73117400  -0.65221500
H    3.60422400   3.36804300   1.71069500