19

C    1.98301900  -1.61414800  -1.08726100
C    2.82470300  -0.84489600  -0.05942200
C    2.68359600   0.63639100  -0.28057000
O    1.48206600   1.10750600   0.02792400
C    3.85984000   1.41696000   0.88495000
O    3.85336400   2.71544200   0.67596200
C    4.80573200   3.28450500  -0.22596900
H    2.11600400  -2.69182300  -0.92300900
H    2.29432300  -1.38921600  -2.11765600
H    0.91666000  -1.37596800  -0.97872100
H    3.88352800  -1.12742600  -0.14982600
H    2.49186300  -1.08857000   0.96126800
H    3.11902100   1.03245900  -1.21674500
H    1.30890200   1.98396500  -0.34521000
H    4.79135800   0.88170100   0.64300100
H    3.36070200   1.14310800   1.82269300
H    4.72623000   4.37059800  -0.11860600
H    4.55709900   2.99425600  -1.25977800
H    5.81914900   2.94480800   0.03013000