19

C    2.18776100  -0.43598000   1.42459200
C    2.27260400   0.14394000   0.00343400
C    2.95350800   1.48334300  -0.01079300
C    2.19460900   2.65086800   0.10134900
C    4.36125900   1.64474300  -0.07300200
C    5.26753000   0.59861800  -0.16597900
C    6.72570500   0.75967300  -0.20492100
H    1.66185700  -1.39949600   1.40086200
H    1.63639700   0.23385900   2.10010700
H    3.18787900  -0.60014800   1.85274400
H    1.25863900   0.26138900  -0.40615200
H    2.79348200  -0.55860900  -0.66284000
H    1.10361900   2.60984800   0.16708200
H    2.66653700   3.63721400   0.12375400
H    4.76038900   2.66403300  -0.04032600
H    4.88201300  -0.42657900  -0.21346100
H    7.05595800   1.80395700  -0.15207900
H    7.11815400   0.28698100  -1.12381000
H    7.17871400   0.17952800   0.61944800