11

C    0.94448200  -0.08529400   0.00388000
C    2.46477300   0.08790100   0.00026700
C    2.97423500   1.40942000   0.00067300
C    3.43200200   2.57133600   0.00003600
C    3.93247100   3.82296600  -0.00041900
N    4.36782600   4.91531100  -0.00075100
H    0.71626900  -1.15811800   0.00283600
H    0.49427100   0.36909800  -0.88858700
H    0.49895300   0.36636100   0.90008300
H    2.96292100  -0.41696600  -0.86306400
H    2.96736800  -0.41919000   0.85965500