17

C    1.00143700   0.09429200   0.14469500
C    2.48172500   0.03931300   0.05188400
C    3.27716900  -1.11214400   0.03400000
C    4.71873300  -0.75884800  -0.06820600
C    4.66259500   0.72732500  -0.10688500
C    3.33953300   1.17827100  -0.03528600
C    2.88098800   2.58981900  -0.04613700
H    0.55338900  -0.90465500   0.20131200
H    0.58474600   0.62083700  -0.72914900
H    0.69710800   0.67030600   1.03356800
H    2.89444900  -2.13407800   0.08789200
H    5.19741000  -1.18827500  -0.96755100
H    5.30999600  -1.13878300   0.78522700
H    5.53834600   1.37637000  -0.18122000
H    2.19683900   2.76111400  -0.89295500
H    3.71676400   3.29546200  -0.11950900
H    2.30935300   2.81114100   0.86970100