19

C    1.04792000   0.17345600  -0.34131800
C    2.51422000  -0.03320900   0.02531700
C    3.24306400   1.30134300   0.18376100
C    4.74581500   1.05934600   0.54922100
N    5.41815700   2.30192500   0.71299000
C    6.03249800   3.04809500  -0.33934800
H    0.54399400  -0.79677200  -0.45009700
H    0.94273500   0.71330300  -1.29416100
H    0.51469400   0.74182500   0.43518500
H    3.01535700  -0.63380600  -0.75122100
H    2.58989000  -0.60505900   0.96443500
H    2.77456100   1.90621400   0.97626000
H    3.19884200   1.88240300  -0.75128400
H    5.23017900   0.49312100  -0.25994100
H    4.79969700   0.49790900   1.49355200
H    5.36809500   2.75041100   1.63323400
H    5.99382700   2.48906400  -1.28092000
H    7.08105500   3.26361500  -0.06437500
H    5.52561800   4.02449600  -0.44407100