18

C    1.21579800   0.33425500   0.10106800
C    2.58515300  -0.21578300  -0.27720100
N    3.50227300  -0.23492600   0.82221800
C    4.91472000   0.06377900   0.72209200
C    5.11044600   1.60338100   0.79688800
C    5.64553600  -0.65573800   1.75999000
C    6.25550700  -1.23981300   2.62217900
H    0.55716500   0.27032100  -0.77466700
H    1.28403100   1.38749100   0.40532500
H    0.75336100  -0.24868400   0.91081100
H    3.05920300   0.32719700  -1.10955700
H    2.49364200  -1.27407800  -0.60972200
H    3.14064800  -0.46997100   1.75465600
H    5.23580400  -0.27196900  -0.28099000
H    4.78568700   1.98757600   1.77256300
H    4.56153100   2.10685800  -0.01029600
H    6.18390000   1.80065900   0.67624200
H    6.80685900  -1.76253700   3.38638600