16

C    0.95822500  -0.22631900  -0.12511800
C    2.44457900  -0.29163700  -0.15973900
O    3.06679800  -0.64398900  -1.25975100
C    3.05209900   1.76469200   0.17298100
N    2.48870800   2.18875100   1.31488700
C    4.45763400   1.56311100   0.11542100
C    5.65008400   1.35953300   0.06177700
H    0.60281300   0.23372500   0.80486800
H    0.56624800  -1.25815000  -0.15052700
H    0.54262200   0.31523200  -0.98946500
H    2.98466600  -0.61576500   0.73626400
H    2.51190100  -0.55234900  -2.04858800
H    2.54148200   2.06124900  -0.75043400
H    3.00688400   2.17914900   2.18804800
H    1.55499000   2.58347200   1.32602000
H    6.71413100   1.19527800   0.01040700