15

C   -0.88588700   0.00004100  -1.24639200
C   -0.62052700   1.01098500  -0.10703000
N   -1.19696100  -0.00009100   0.76683200
C   -0.62054500  -1.01104200  -0.10716100
C    0.89341600  -0.76082900   0.29990200
N    1.67931100  -0.00001400  -0.58417800
C    0.89342700   0.76070200   0.30000600
H   -1.93896800   0.00007800  -1.54722600
H   -0.24555900   0.00009100  -2.13583700
H   -0.99832000   2.03774100  -0.06988300
H   -1.26766100  -0.00016600   1.78985200
H   -0.99833000  -2.03780700  -0.07016100
H    1.35899700  -1.39429700   1.05942000
H    1.60164600   0.00006200  -1.60070500
H    1.35902200   1.39406700   1.05960100