19

C    0.63659800  -0.65325200  -0.76366000
C    1.95944200  -0.16488700  -0.19362800
C    3.15918600  -1.01126600  -0.61841000
N    2.15862600   1.23969000  -0.60130000
C    2.72944800   2.17017500   0.12122700
C    2.91859800   3.56008100  -0.40554300
N    3.07135700   1.86468000   1.38233100
H   -0.20387600  -0.02811200  -0.43164300
H    0.45133600  -1.67895100  -0.41789500
H    0.65712100  -0.67681100  -1.86510000
H    1.91652200  -0.13409700   0.90859000
H    3.26583800  -1.03332800  -1.71332100
H    3.01180500  -2.04296000  -0.27154200
H    4.09306100  -0.63572500  -0.17593300
H    1.87312200   1.48997500  -1.54842500
H    2.34594700   3.72140300  -1.32757800
H    3.98849000   3.72382200  -0.60837000
H    2.59712700   4.29488100   0.34579800
H    3.92993600   2.31558600   1.72036500