13

C    2.00427400  -0.96231400  -0.79232200
C    2.03266100   0.42719000  -0.70598000
C    3.21737600   1.15571300  -0.51493500
C    3.31632500   2.63702400  -1.13833700
C    3.13937400   2.55348200   0.27945300
H    1.06211100  -1.49541900  -0.94168000
H    2.92219000  -1.55235800  -0.71287600
H    1.08659000   0.97508900  -0.79120100
H    4.16351800   0.61598600  -0.42884400
H    2.47452400   2.90582000  -1.78091800
H    4.31346600   2.79200900  -1.55968100
H    4.00051900   2.64502100   0.94723800
H    2.16220800   2.75883000   0.72306700