15

N    1.21306200  -0.13240400   0.09487800
N    2.47754500   0.00660300  -0.16473800
C    3.24504000   1.24517700  -0.15894000
C    4.56077100   0.81498000  -0.83304800
C    4.68729300  -0.69350800  -0.57511800
C    3.28142500  -1.18481600  -0.40513900
O    2.75874600  -2.25270500  -0.40728100
H    0.85395700  -1.09294500   0.06178900
H    0.62087900   0.68030100   0.24982400
H    3.38260300   1.56753700   0.88749400
H    2.70375200   2.03224700  -0.70388200
H    4.50403000   1.01281500  -1.91244800
H    5.40953000   1.38340100  -0.43631900
H    5.19045600  -1.25323700  -1.37440300
H    5.22599400  -0.91942800   0.36150400