14

C    1.15328200   0.07940600  -0.63649900
C    2.20101600  -0.12835400   0.38009000
N    3.30870900   0.51659100   0.33207000
O    4.26350600   0.13700800   1.19934400
C    5.14713900   1.15276200   1.47261900
C    5.72308000   1.66535100   0.08724900
O    6.77573300   2.15608300  -0.04841000
H    0.23074200   0.42073500  -0.13969500
H    0.91231800  -0.89045800  -1.10149800
H    1.45614300   0.79994100  -1.40498900
H    2.03347900  -0.82504600   1.21567600
H    5.94529700   0.76391200   2.11581800
H    4.65497800   2.05159500   1.88997300
H    4.92750100   1.51190000  -0.70837100