17

C    0.89257400  -0.03094200   0.32278500
C    2.38466200  -0.00635300  -0.03119900
C    2.82191500   1.29539800  -0.71578800
C    4.02334400   1.19988600  -1.56555100
C    4.50810500  -0.01183700  -2.03318600
C    3.87732800  -1.21970300  -1.66540900
C    2.84738100  -1.22279500  -0.73517600
H    0.63556400   0.84894000   0.92778700
H    0.63721500  -0.92670000   0.90535000
H    0.27287300  -0.01781700  -0.58561200
H    2.94234800  -0.07618700   0.93342700
H    2.92628000   2.12074600   0.00649400
H    2.01372800   1.64729200  -1.39626900
H    4.50865000   2.12711100  -1.88614900
H    5.36757100  -0.03192900  -2.70694000
H    4.21578000  -2.16171400  -2.10287700
H    2.39525400  -2.17936600  -0.45164300