12

C    2.49348500  -0.13147000   0.70292400
N    1.81345600   0.18551300  -0.59650400
C    2.39354800   1.38488200  -0.69197200
C    2.58618600   2.59161300  -1.38688900
S    3.67846900   3.52628800  -0.48361900
C    3.88379300   2.32025400   0.81832500
C    3.12451000   1.25431700   0.53164400
H    3.17395100  -0.99076800   0.63120300
H    1.78855100  -0.24744500   1.53732000
H    1.15568800  -0.32785100  -1.18044900
H    2.16255600   2.94827500  -2.32597900
H    4.55109600   2.54914700   1.64987600