15

C    1.09984600  -0.03758500  -0.14064100
C    2.55573300   0.13065300  -0.02801200
N    3.18292200   1.20453800  -0.51992300
N    4.44974700   1.09010200  -0.23557500
C    4.82288900  -0.11123200   0.43746700
C    4.54395000  -1.35368600  -0.38450100
C    3.50532200  -0.80688200   0.59862700
H    0.87273800  -0.96619100  -0.69060700
H    0.63998100   0.81888000  -0.64613200
H    0.66373900  -0.16000200   0.86470500
H    5.09003000   1.82150700  -0.55172300
H    5.63616200  -0.05804900   1.16416400
H    5.06183900  -2.26389800  -0.07627800
H    4.37471000  -1.24279400  -1.45905100
H    3.22769300  -1.41105200   1.46484100