14

N    0.39745900   0.45383600  -0.97195900
C    0.95732400  -0.67610800  -0.62004200
C    2.32525600  -1.07804000  -1.01453600
C    2.86856700  -0.73239200   0.32114100
O    3.04347700  -1.72344100   1.18298300
C    3.40237000  -1.39954200   2.49947200
O    3.48439000  -0.28599200   2.87952100
H    0.82810000   1.08122300  -1.64793800
H   -0.49487300   0.74559800  -0.58017400
H    0.38754800  -1.33054900   0.04724400
H    2.74895800  -0.47363000  -1.82870000
H    2.41197700  -2.15145300  -1.22865000
H    3.11518700   0.28604000   0.63696200
H    3.57450900  -2.33741800   3.05288400