16

C    1.01158400  -0.02383900  -0.00258900
C    2.47071000  -0.21587800  -0.02575200
C    3.24434800  -0.64386700  -1.22075500
C    3.36884700   0.82731900  -1.17467100
C    4.54413500   1.57877800  -0.61228700
O    5.20519900   1.97795200  -1.77890300
H    0.71986500   0.83936100   0.61615100
H    0.58444500  -0.91019000   0.51027900
H    0.56234600   0.04119000  -1.00183000
H    3.00132700  -0.19394300   0.93330200
H    2.64862000  -1.04642500  -2.04727900
H    4.15953500  -1.19972100  -0.98151100
H    2.67681600   1.42403900  -1.77896200
H    5.15989900   0.95640800   0.05839900
H    4.22854300   2.47965700  -0.06958300
H    5.77736400   1.27284500  -2.10715500