16

C    1.02953200  -0.00015900   0.04722200
C    2.35149700   0.04127900   0.00716400
C    3.37326400  -1.12161000   0.04350100
N    4.55766000  -0.24735400  -0.04239700
C    4.33032100   0.68821000  -1.15622600
C    3.30335000   1.22305300  -0.08887000
C    4.39427800   0.81001400   0.96894900
H    0.48476400  -0.94433500   0.11684000
H    0.44326500   0.92173500   0.01145600
H    3.32887100  -1.79650500  -0.82121500
H    3.38327400  -1.69259400   0.98108600
H    3.96756300   0.23031100  -2.08319400
H    5.18368800   1.35954900  -1.31352200
H    2.95864200   2.26438000  -0.13805800
H    5.25317100   1.49205200   0.99711000
H    4.08945900   0.46215300   1.96223500