13

O    2.70460300  -1.13233300  -0.17667300
C    2.14809100   0.04963500   0.26089800
C    3.35011300   1.00853600   0.36232500
O    3.70041600   1.78702100  -0.69676100
C    2.97254800   2.54242800   0.23220300
C    3.67079100   3.49041200   0.99104600
C    4.26750200   4.31897700   1.66564700
H    2.80110400  -1.14314100  -1.13923000
H    1.72648300  -0.10039800   1.26363200
H    1.38226200   0.46870900  -0.41275500
H    4.18304300   0.65913000   0.98813200
H    1.90636100   2.70283100   0.02379200
H    4.79632800   5.05175600   2.25974100