17

C    3.01858700  -0.79781300   1.10081900
C    2.72409300  -0.00079500  -0.16131900
C    2.93108400   1.50381800  -0.06006800
C    2.50791800   2.36524500  -1.21855000
O    2.69240500   2.08065800   1.10339300
C    4.81250700   1.55825700  -0.21720900
O    5.46597300   1.39538600   0.72234500
H    2.82957600  -1.86304400   0.91448100
H    2.35869900  -0.51544000   1.93707000
H    4.06637100  -0.70771800   1.42666700
H    1.65687700  -0.10023400  -0.43869700
H    3.27929600  -0.39002700  -1.02993700
H    2.83242000   1.94226900  -2.17828800
H    2.86992600   3.39696700  -1.10926900
H    1.40672000   2.39962000  -1.21083800
H    2.76147500   1.45840900   1.84644700
H    5.08322100   1.74051700  -1.28385000