17

C    0.46816900   1.00520300  -0.24774500
C   -0.53624300   0.04672500   0.28448600
C    0.84574500  -0.47350300   0.03614400
C    1.89063600  -0.71896400   1.13345900
C    1.69102900  -0.05848300   2.50061900
C    1.06499100  -1.39548400   2.88843500
O    1.43336500  -1.97916600   1.63010100
H    0.48221100   1.26393800  -1.30982900
H    0.87625800   1.76856700   0.41838700
H   -1.31942900  -0.32708900  -0.37801900
H   -0.85404700   0.20187100   1.32152900
H    0.99082300  -1.13829400  -0.81921500
H    2.89557200  -0.79950500   0.69460700
H    1.04146300   0.82384000   2.54743700
H    2.63484100   0.16194600   3.01499500
H    1.53839400  -1.99665600   3.68646800
H   -0.02945500  -1.45096400   3.02867400