18

C    1.69361100   0.10169700  -1.58948700
O    2.84395100   0.23433700  -0.74145700
C    3.23690500   1.37689300  -0.28156700
C    2.55205300   2.58378800  -0.43502700
C    4.62420000   1.37761800   0.33863800
C    5.14646100   0.02355300   0.78460700
N    5.28889100   1.96225800  -0.79343600
H    1.66475800  -0.95055400  -1.88648400
H    1.80297700   0.74410500  -2.47452800
H    0.78386000   0.35501600  -1.02809400
H    1.55685100   2.64359000  -0.87869900
H    2.99129600   3.49922600  -0.03752400
H    4.64662100   2.09231500   1.17237000
H    5.14215400  -0.70015500  -0.04158600
H    4.52296500  -0.37542200   1.59603100
H    6.17322300   0.13418800   1.15694700
H    5.57312200   1.36021300  -1.56073100
H    5.74859400   2.86470800  -0.73268000