13

O    1.37713000  -0.19439600  -0.74454400
C    2.60223700  -0.20676300  -0.09309900
C    3.02923600   1.23405300  -0.00632700
C    2.34531600   2.31916100  -0.47389600
C    3.05912200   3.60269900  -0.21986200
C    4.24435400   3.42133200   0.42610600
S    4.50312200   1.74839300   0.72527500
H    1.03939100  -1.09094400  -0.83701000
H    3.37769900  -0.77884900  -0.63916700
H    2.54472700  -0.62656000   0.93027100
H    1.38083300   2.23204100  -0.97645400
H    2.66982900   4.57716300  -0.52096000
H    4.98007000   4.15995100   0.74460600