14

C    0.83055200   0.02376200  -0.03739200
C    2.34238600  -0.01178700  -0.04240000
C    3.03286900  -0.03560600   1.30312000
O    2.80954400  -1.11427300  -0.85806400
C    3.43566000  -0.62694100  -1.86271500
N    3.48579300   0.70869900  -1.88779800
O    2.84923300   1.10940500  -0.82481900
H    0.43307200   0.04962500  -1.06069300
H    0.50188200   0.92007800   0.50463700
H    0.45800000  -0.86881200   0.48232200
H    4.12460200  -0.04984900   1.18601400
H    2.70728800  -0.92947700   1.85137100
H    2.73770000   0.85985200   1.86546400
H    3.88267500  -1.26985700  -2.62559600