14

C    0.95134100   0.02899100   0.02202400
C    2.43062600   0.06842100   0.01121100
C    3.17608100   1.22121800   0.14473200
C    4.58047100   1.12589800   0.09360200
N    5.25670700  -0.00196300  -0.10134700
O    4.59177000  -1.10765900  -0.23910300
C    3.16521900  -1.20348500  -0.16431800
H    0.57814500  -0.79175400   0.65442000
H    0.59149300  -0.17799000  -1.00238100
H    0.51896900   0.98006200   0.35477600
H    2.70104400   2.19380300   0.28784900
H    5.22604100   2.00100300   0.20443900
H    2.95292700  -1.90133200   0.66961800
H    2.85391000  -1.73130400  -1.08561900