15

C    2.34338200  -0.01472900   1.80989500
C    2.43167400   0.20507900   0.27985700
N    2.98634700   1.50022800  -0.02049900
C    2.13488700   2.64241400  -0.18314400
C    4.42143500   1.64574100  -0.10315600
O    5.12177000   0.69351200   0.02578100
H    1.89612300  -1.00545800   1.96508800
H    1.70303900   0.73892400   2.28757600
H    3.34253400  -0.00484100   2.26386400
H    1.43082600   0.15660000  -0.17172600
H    3.09601100  -0.55389400  -0.15706200
H    1.58288200   2.53614000  -1.13705500
H    2.71696800   3.57157300  -0.19658100
H    1.38421100   2.66054700   0.62424400
H    4.74917500   2.68748600  -0.28581600