20

C    0.83452900   0.05855500   0.13572100
C    2.33739100  -0.06025600   0.00067500
C    3.23067700   0.98701700   0.70770000
N    3.97542700  -0.08403400   1.29854600
C    3.11762300  -1.15626600   0.81338600
C    2.35610000  -1.81106300   1.97847500
C    3.89279000  -2.19358500  -0.00264100
H    0.33822800  -0.83408800  -0.27041200
H    0.47183600   0.92351400  -0.43758000
H    0.51390100   0.18690500   1.17911700
H    2.61934200  -0.13340900  -1.06005300
H    2.73133800   1.59914000   1.48676900
H    3.85755500   1.67265200   0.11009700
H    4.86605700  -0.09732000   1.80895800
H    1.86146200  -1.07070700   2.62020800
H    3.03554700  -2.42108200   2.58955600
H    1.58816400  -2.46861100   1.54786900
H    4.48066000  -1.72352300  -0.80293200
H    3.16073000  -2.87179400  -0.46403200
H    4.55854200  -2.78980100   0.63744900