13

C    0.72398100  -1.23314500   0.56071500
O   -0.59367400  -1.49672800   0.03182500
C   -1.48039600  -0.58719600  -0.12825200
C   -1.23924300   0.78477500   0.05697000
C    0.12946300   1.25832300   0.13397400
O    0.96703500   0.71191900  -0.88814200
C    1.15961300   0.19176800   0.37403300
H    1.38592200  -1.93111400   0.02949700
H    0.69147200  -1.51756100   1.62341800
H   -2.46421600  -0.97926400  -0.41027400
H   -2.09161900   1.46618500   0.11607900
H    0.33202400   2.29375800   0.41845900
H    2.06912800   0.48863000   0.91361600