17

O    1.51584000  -0.34327000  -0.49116100
C    2.59933100   0.01464400   0.11640700
C    3.55254600  -1.05626500   0.47444600
C    4.38413900  -0.59054100  -0.67710100
C    5.16794000   0.66340000  -0.52868700
C    4.16266500   1.83904000  -0.48179600
C    2.94858600   1.44163100   0.39130100
H    0.98495300   0.40620400  -0.80668500
H    3.12900500  -2.05979500   0.35833800
H    4.03017200  -0.90147200   1.45238000
H    4.28233900  -1.10205900  -1.63948200
H    5.74632400   0.63292100   0.41120600
H    5.87400100   0.79664100  -1.35819000
H    4.63295800   2.75227700  -0.09277500
H    3.81158100   2.05667500  -1.50144000
H    3.20773200   1.52132400   1.46050800
H    2.08763600   2.10154200   0.20961100