13

O    1.31519700   0.16446200  -1.06033400
C    1.96434600   0.25788000  -0.10130400
C    3.30449300   1.36021900  -0.05456800
O    3.78304200   1.38715300   1.20548800
C    3.54430500   2.66340600   1.77867900
C    2.94356700   3.46844500   0.69095300
C    2.81682200   2.69223900  -0.41084900
H    1.90725600  -0.29420500   0.86510500
H    3.94344800   0.78018700  -0.74806500
H    4.51193700   3.06594100   2.13547900
H    2.89947600   2.56047700   2.67286700
H    2.67311600   4.52119200   0.78561900
H    2.39706200   2.96061600  -1.38032200