19

C    1.12009400   0.13950700   0.21833300
C    2.63201200  -0.05572700  -0.10238100
C    2.84929800  -0.69595100  -1.47370900
C    3.19015100   1.31187900  -0.02286300
O    3.64280300   1.84229700   1.15182500
C    4.81387600   1.43646800   0.58693300
C    5.80257800   2.43512400   0.17296200
H    0.96636300   0.59078600   1.20773600
H    0.65839100  -0.85867800   0.21379200
H    0.62105500   0.75267400  -0.54577700
H    3.06846800  -0.67444500   0.69747300
H    2.43339800  -0.07242400  -2.27936600
H    2.34046400  -1.66833100  -1.50756800
H    3.91594100  -0.86672500  -1.67747600
H    2.92417300   2.05809900  -0.78651300
H    5.10353100   0.38841300   0.75277400
H    5.33681900   3.38098500  -0.13242600
H    6.46148200   2.03199600  -0.60952400
H    6.44767000   2.64237900   1.05079600