15

N    1.21061300   1.40950800  -1.26873400
N    2.49560200   1.31991000  -1.20132600
C    3.04740200   0.80466400  -0.11004600
C    4.43803100   0.67720800  -0.02181800
C    5.37444600   1.00745300  -1.15640900
C    5.40198200   2.25069500  -0.40373200
O    6.39650100   2.49234900   0.40653500
H    0.81162200   1.79507700  -2.11940000
H    0.58523600   1.06576800  -0.53567900
H    2.42808700   0.47077500   0.73642800
H    4.86512400   0.23281300   0.87954800
H    4.88163400   1.06287800  -2.13195300
H    6.31279500   0.44386600  -1.14186500
H    4.65909000   3.03308800  -0.59918700
H    6.26437200   3.29158900   0.93605000