14

N    2.68640600  -1.37914700  -1.02135100
C    3.06208700  -0.46748600  -0.14867200
O    3.05215400  -0.78077900   1.10005500
C    3.48230700   0.85921200  -0.52581700
C    3.87001800   1.79762000   0.38019100
C    4.29235600   3.12666400   0.02254000
C    4.66575800   4.01625600   0.95964100
H    2.68401500  -1.16142400  -2.01302800
H    2.39389200  -2.30908700  -0.73243300
H    3.46880600   1.06477800  -1.60002500
H    3.86930500   1.55161500   1.44905900
H    4.30250700   3.39811400  -1.03717300
H    4.66256900   3.76436100   2.02440300
H    4.98614000   5.02462600   0.68856900