11

O    2.46106500  -1.11424200   0.01910100
N    2.21044200   0.02434100   0.00752300
C    2.93787700   1.12929600   0.00907200
C    2.33144000   2.42059500  -0.00830700
N    3.32525200   3.28390000  -0.00148900
C    4.57318100   2.64114300   0.01962400
C    4.37762200   1.30152700   0.02678600
H    1.27820300   2.69914300  -0.02420800
H    3.20621100   4.29537400  -0.01041100
H    5.49274200   3.22197000   0.02751600
H    5.13184000   0.51865500   0.04241300