12

C    2.92002200  -1.07597100   0.33839500
C    2.44538200   0.05623400  -0.18047400
N    3.15709100   1.30269900  -0.06687600
C    2.52629800   2.46061700   0.11344800
O    1.31248000   2.56671400   0.26275300
C    4.59368300   1.41028800  -0.22783300
O    5.13158200   2.46190700  -0.13732000
H    2.34752900  -1.99636100   0.20716800
H    3.84568000  -1.13781800   0.91658600
H    1.50854200   0.11819900  -0.73773500
H    3.17148900   3.38035900   0.10372000
H    5.07139800   0.43157000  -0.43524100