17

O    1.00590300  -0.30423700  -0.02735000
C    2.35112500  -0.13047000   0.12076600
C    2.91702800   1.10031800   0.86144100
C    4.36847100   0.67612500   1.10848500
C    4.25825400  -0.82614600   1.41844900
C    3.05079900  -1.28663900   0.70601100
C    2.57607200  -2.60206200   0.59266700
H    0.61918200   0.40902500  -0.54884400
H    2.89992400  -0.14251100  -0.87602700
H    2.35527300   1.22217600   1.80162200
H    2.81669500   2.02284500   0.27613300
H    4.97223500   0.82462900   0.19895900
H    4.85258500   1.23548600   1.91741200
H    5.15482900  -1.44402500   1.25452500
H    3.99487800  -0.97223500   2.49173200
H    1.69050000  -2.80774100  -0.01652900
H    3.07069800  -3.42858700   1.11089600