17

C    1.01802200   1.80374600   0.48166300
C    2.36279800   1.32608700   0.00249200
O    3.37600600   2.21464200   0.55710900
N    4.55247000   2.06166800   0.02864000
C    5.45082000   2.84667300   0.58134100
C    6.83949200   2.80400900   0.04328400
N    6.55235600   3.83542800  -0.91463800
H    0.24520700   1.12998700   0.08684500
H    0.80204600   2.81956400   0.12383300
H    0.95641100   1.78695900   1.57820600
H    2.47545700   1.35514300  -1.09098700
H    2.60653800   0.31434200   0.35986300
H    5.16557400   3.58468300   1.34372100
H    7.09491300   1.85338500  -0.43811700
H    7.61126600   3.10218900   0.76080200
H    6.14174200   3.60129400  -1.81551500
H    6.64810600   4.82160800  -0.68425300