19

C    0.92913700   0.00966700  -0.05036500
C    2.44539400   0.00337200   0.08649300
N    3.13450300   0.05939200  -1.18307600
C    3.14698500   1.03443800   1.00889400
C    4.22977900  -0.04595400   1.20612600
N    5.12214600   0.00384200   0.08166500
C    3.14703400  -1.10493900   0.91436800
H    0.46541800  -0.03485900   0.94411600
H    0.58437500  -0.85836800  -0.63091400
H    0.58460800   0.92627300  -0.55088600
H    3.09627400  -0.76602400  -1.77934100
H    3.09662000   0.93420500  -1.70421900
H    2.57167700   1.19879400   1.92845500
H    3.44412700   2.00516300   0.58392300
H    4.76663600  -0.08851500   2.16900100
H    5.64543500   0.86335000  -0.07564900
H    5.64561100  -0.83827500  -0.15101900
H    3.44429900  -2.03437300   0.40544500
H    2.57177100  -1.34980000   1.81585100