18

C   -1.22253200  -0.75655400  -0.55524100
C   -1.18148600   0.78681800  -0.51420000
C    0.05554400   1.08039200   0.43379800
C   -0.06055400  -0.08602000   1.43255500
C   -0.03063800  -1.16454100   0.33908300
C    1.26066300  -0.77023000  -0.39655800
N    1.18021300   0.66822400  -0.34562500
H   -1.13879100  -1.15895400  -1.57377800
H   -2.15913600  -1.13984100  -0.12875200
H   -2.05175400   1.23712400  -0.01503500
H   -1.07110600   1.26858000  -1.49467000
H    0.13223700   2.11672300   0.78104800
H   -1.00537600  -0.04671300   1.98955900
H    0.77770200  -0.13020800   2.14275000
H   -0.02934400  -2.20722800   0.67496000
H    2.16663200  -1.09115600   0.15849200
H    1.37897900  -1.11832200  -1.43611700
H    1.73988700   1.29600800  -0.92773100