14

C    0.97871500   0.03067200   0.00114100
C    2.41592200   0.00513100   0.00021300
C    3.64741700  -0.01816300  -0.00099100
C    5.03214700  -0.06712800  -0.00182500
C    5.80841900  -1.33569000  -0.00521000
N    5.60524700   1.15602600   0.00008900
O    6.89860000   1.07023800  -0.00155600
H    0.59243400   1.05892100   0.01303200
H    0.60515700  -0.52116300   0.88044800
H    0.60574200  -0.49919400  -0.89198800
H    5.14408400  -2.20549200  -0.00146300
H    6.47074700  -1.36700800   0.87484100
H    6.46039300  -1.36764000  -0.89309600
H    7.24072500   1.98358000  -0.00050500