17

C    1.39049600  -0.25290900   0.47590900
N    2.50561300   0.10835200  -0.33450300
C    3.07796500   1.42498100  -0.36922500
C    4.60970700   1.44256400  -0.22279900
C    5.15068500   0.75053800   1.04581500
C    4.24018500   0.89983100   2.18093600
N    3.40553800   0.98883200   2.97505400
H    1.05869500  -1.27338600   0.26034500
H    0.57489100   0.47740500   0.32211500
H    1.68895900  -0.14889100   1.54212400
H    2.93323200  -0.60938500  -0.92961800
H    2.58318200   2.02749200   0.40539100
H    2.81578100   1.85797200  -1.35658200
H    4.88464300   2.50731100  -0.22121000
H    5.08994400   1.00129200  -1.10883500
H    6.13955400   1.15682400   1.30301100
H    5.29825700  -0.32915600   0.88219000