15

O    1.05078700  -0.15577300  -0.11998600
C    2.38364600   0.00576000  -0.01022400
C    3.30194300  -0.54894000  -1.10428000
C    4.40732000  -0.28123200  -0.06561900
C    3.23086200  -0.76627800   1.05371400
O    4.37376000   1.04688100   0.22316400
C    2.99857200   1.42524600   0.12856500
H    0.57359900   0.19816300   0.64198400
H    3.39350400   0.00569100  -2.05021600
H    3.16176700  -1.62209500  -1.27989600
H    5.41663300  -0.70320700  -0.01858000
H    3.13372600  -1.85961300   1.03418500
H    3.38910800  -0.36362200   2.06373400
H    2.84349900   2.02983200  -0.78218400
H    2.75561600   2.02800800   1.01679900