14

C   -0.01180900  -0.09562000  -0.13365300
C    1.44605200  -0.33768100  -0.13455800
C    1.99005300  -1.64401300  -0.31777700
O    2.17895800   0.69916800   0.03912900
C    3.62973800   0.69848200   0.07447400
C    4.06065700   2.07274300   0.29280500
N    4.41951300   3.15480200   0.46523100
H   -0.23533700   0.96580300   0.02077400
H   -0.48344500  -0.70307300   0.65735100
H   -0.44081900  -0.43987400  -1.08998900
H    1.30495100  -2.48307700  -0.46056600
H    3.06336700  -1.84702700  -0.32231800
H    4.01395600   0.32595500  -0.88758400
H    3.97039600   0.05556100   0.90064000