15

O    1.06284300   0.28129300  -0.42399500
C    2.33899100   0.16472400   0.14645100
C    3.17222800   1.36951500  -0.26246600
C    3.49982800   1.28222500  -1.75500300
N    4.17995500   0.01348700  -1.97120700
N    3.78175900  -1.09361100  -1.44757600
C    2.86585400  -1.09842600  -0.51996500
H    0.39341000  -0.17403000   0.10168000
H    2.31786000   0.04878100   1.24138200
H    2.60052000   2.28424000  -0.06107700
H    4.10072400   1.40680500   0.32664600
H    4.16117900   2.08323400  -2.10542600
H    2.57519800   1.29640000  -2.35781700
H    5.04676100  -0.05117100  -2.51050800
H    2.39458200  -2.06522900  -0.31461600