15

C    0.85811400  -0.00794500  -0.85431800
C    2.11241200   0.13839300  -0.06794900
N    2.64577700  -0.82987800   0.63206300
N    2.43683600  -2.08473400   0.45520500
C    2.81584700   1.42613400  -0.02555000
C    3.22075600   1.99847700   1.29637800
O    4.13504400   1.39485100   0.43910700
H    1.12975500  -0.19332500  -1.91032300
H    0.28339800   0.92834500  -0.83579600
H    0.23005600  -0.83355600  -0.49627700
H    2.24706600  -2.48694000  -0.46738100
H    2.67489500  -2.70986000   1.22611000
H    2.58563300   2.12084800  -0.84250300
H    2.98250600   1.44925500   2.21469200
H    3.25736100   3.09189200   1.36491200