17

C    0.94847100   0.13325700   0.18824100
N    2.38073600   0.10113500   0.09885400
C    3.04825500   1.17040800   0.07610200
N    4.45899400   1.11186600  -0.01239400
C    5.11950100  -0.19313500  -0.07600100
C    5.14913400   2.26624000  -0.03515000
C    6.52102200   2.35681600  -0.11866400
H    0.64706800  -0.44081100   1.07800600
H    0.53823900  -0.41020300  -0.67688300
H    0.51660700   1.14666600   0.23271200
H    2.64375100   2.19456600   0.11903200
H    4.34347100  -0.96314400  -0.04126600
H    5.79572700  -0.29990000   0.78285500
H    5.68426000  -0.26869900  -1.01496500
H    4.54507800   3.17632600   0.01812200
H    7.17558800   1.48507300  -0.17438900
H    6.98501700   3.34455200  -0.13029200