13

N    1.05848400  -0.00873700   0.71885100
C    2.24550400  -0.01550800   0.16590700
N    2.84387700  -1.16441900  -0.17492100
C    3.03579200   1.22649100   0.01897300
C    2.46064200   2.38109900  -0.35535900
C    4.53687400   1.15550000   0.23601900
O    5.21056200   2.13849900   0.19733300
H    0.68611300   0.84479500   1.12764800
H    0.50689900  -0.85963800   0.81239300
H    2.87595600  -1.46679300  -1.15724300
H    1.39775100   2.48335600  -0.59078200
H    3.10104600   3.26326900  -0.46185600
H    4.95595800   0.14024300   0.43238700