8

C    0.93744100  -0.05317800   0.00001000
C    2.18102200   0.02477000   0.00001300
C    3.60661500   0.08298900  -0.00002000
C    4.20090100   1.41019300  -0.00001200
N    4.68264700   2.46031600   0.00000400
H   -0.14845500  -0.11720800  -0.00002000
H    3.96970000  -0.53075700  -0.86285700
H    3.96964000  -0.53070600   0.86289100