15

C    1.13604200  -0.00498100   0.42090700
N    2.17783900  -0.00363700  -0.56728200
C    2.72739500  -1.19511000  -1.16747200
C    3.68648300  -0.66707800  -2.18796200
C    3.69509100   0.66662500  -2.17708300
C    2.74280100   1.19027500  -1.14800700
H    1.21132800   0.89288300   1.04798400
H    1.20015000  -0.91349900   1.03373000
H    0.15548300   0.00510200  -0.09055700
H    1.90313200  -1.81153600  -1.58176600
H    3.19550800  -1.81899000  -0.37833500
H    4.28150800  -1.31811800  -2.82751200
H    4.29853900   1.32027800  -2.80598800
H    3.21884200   1.79510100  -0.34884100
H    1.92660600   1.82396600  -1.55210100