15

C    1.00017800  -1.19588700   0.88922400
C    1.22117600  -0.35291500  -0.36163300
C    1.01149700   1.14149300  -0.41472300
C   -0.25492100   1.61191300   0.32346100
C   -1.40562200   0.67653800   0.08660500
N   -1.17973900  -0.57359500  -0.03623600
N   -0.00453300  -1.10602500  -0.13703800
H    1.53272800  -2.15024400   0.93737000
H    0.75526100  -0.72890600   1.84906900
H    1.89932700  -0.78692300  -1.10378500
H    1.89987300   1.63885600   0.00321800
H    0.95737200   1.43504400  -1.47352300
H   -0.09031900   1.67420600   1.41341200
H   -0.54099100   2.62452700   0.00847200
H   -2.44664900   1.01112600   0.03159700