20

C    0.78561000  -0.08463600  -0.24924800
C    2.25562600  -0.19997000  -0.08602000
O    2.89410100  -0.69964600  -1.13273800
C    3.11990300   1.86716000   0.04078800
C    2.41187600   2.45412800  -1.14316500
C    2.66807700   2.23004300   1.42294700
N    4.42170200   1.59481800  -0.11774500
H    0.33535300   0.57631700   0.50163100
H    0.34665100  -1.08817700  -0.10877500
H    0.52315700   0.24903900  -1.26201400
H    2.65965300  -0.44438000   0.90620500
H    3.78569300  -0.99202100  -0.90522500
H    2.62393700   1.89121000  -2.06366800
H    2.77011400   3.48847800  -1.28083600
H    1.32856600   2.49737100  -0.98579300
H    3.18359600   1.64744500   2.19979300
H    1.58473900   2.11129900   1.54113100
H    2.89943500   3.29597400   1.59008200
H    5.03481400   1.45620100   0.67856300
H    4.85090900   1.60517700  -1.03702300