15

N    1.59831100  -0.01150300   1.29957500
C    2.16587900   0.11756000   0.13738200
N    1.90777000  -0.65540200  -0.90276400
C    3.30955100   1.15060900   0.06184800
C    2.97735900   2.45656500  -0.68905300
C    3.08894700   3.08940900   0.70793100
O    3.42294000   1.80396600   1.29387500
H    1.96736900   0.58882400   2.04506400
H    0.85102300  -0.67780400   1.47977300
H    1.58280800  -0.25387700  -1.78893600
H    4.22139000   0.60839600  -0.23930100
H    1.98988000   2.51359600  -1.16599700
H    3.74874700   2.75586800  -1.40796900
H    3.91021500   3.80457200   0.84833600
H    2.16169700   3.50051100   1.13256300