14

C    1.10003600  -0.41934300   0.05835900
C    2.48083100  -0.11105100  -0.27717400
C    3.14154200   1.13149800  -0.10099200
C    2.56776200   2.37772600   0.46585200
O    1.26529500   2.22442300   0.87020600
C    4.49640900   1.18823600  -0.51809100
N    5.60628600   1.23080800  -0.86135800
H    0.93672200  -0.23944800   1.14155600
H    0.82122600  -1.44151100  -0.21483800
H    0.41720000   0.32867200  -0.38946500
H    3.10249900  -0.90452900  -0.71143500
H    2.70560900   3.16364100  -0.31617500
H    3.25675200   2.69763300   1.28382000
H    0.92154900   3.04968800   1.23188300