14

N    0.97499400   0.00013300   0.07058800
C    2.12919700   0.00017600   0.06442300
C    3.59506800   0.00019300   0.01269200
C    4.11442500  -1.22480500  -0.78618900
C    4.51578600  -0.70652100  -2.09410800
C    4.51576200   0.70529300  -2.09465100
C    4.11442500   1.22456000  -0.78711500
H    3.97330700   0.00058100   1.04497400
H    3.41305300  -2.07693100  -0.86058400
H    5.01736400  -1.68300400  -0.31863400
H    4.80750800  -1.32563900  -2.94827100
H    4.80751700   1.32376800  -2.94926900
H    5.01740700   1.68307100  -0.31993800
H    3.41309700   2.07666600  -0.86212300