17

C    1.74504700  -1.12141100   0.42716800
C    3.25642900  -1.11174200   0.33348000
N    3.84265500   0.17463300   0.57555000
C    5.24930800   0.46268900   0.46287600
C    5.43886000   1.23156800  -0.83144300
C    5.73965300   2.53105200  -0.87238200
H    1.37832900  -2.13811300   0.23649500
H    1.29138800  -0.45725100  -0.32255300
H    1.40333000  -0.82653700   1.42958200
H    3.61960600  -1.44560800  -0.66112200
H    3.73426900  -1.81318400   1.04781500
H    3.21787000   0.97641100   0.71532600
H    5.80763200  -0.48352100   0.47580600
H    5.54908000   1.07698200   1.32759000
H    5.30930100   0.65156200  -1.75087300
H    5.86603300   3.13169700   0.03364400
H    5.89847200   3.03533200  -1.82863000