17

C    3.02199200  -0.64103500   1.32855800
C    2.34057300   0.15087000   0.20606100
C    2.90832500   1.51482400   0.06134100
N    4.22347500   1.74726600  -0.13165400
C    4.41638200   3.15978400  -0.22250500
C    3.03961600   3.82040200  -0.06783600
N    2.21101300   2.64096500   0.10731700
H    2.60714100  -1.65644900   1.35712300
H    2.85130600  -0.17412900   2.30853800
H    4.10391500  -0.71517400   1.15461300
H    1.25311600   0.21448500   0.35488600
H    2.50997500  -0.35577600  -0.75951900
H    5.14940300   3.46523800   0.54862800
H    4.91981300   3.38766400  -1.18120500
H    2.70982900   4.38633000  -0.95361800
H    2.94956500   4.48021000   0.80955300
H    1.20093100   2.67338400   0.24634800