17

C    2.59703300  -0.53331500  -0.99378800
C    2.26025400   0.35268900   0.21987700
C    2.76148800   1.75497000   0.08430900
C    1.95402900   2.81502700  -0.19168200
C    4.22148700   2.02748000   0.18610300
N    5.06975100   1.03171300   0.65524900
H    2.22401200  -1.55206900  -0.82511700
H    3.67756700  -0.60541700  -1.19455900
H    2.11882200  -0.14083000  -1.90165000
H    2.68480500  -0.08836400   1.14178300
H    1.17117800   0.37362200   0.36211200
H    0.86923700   2.69316900  -0.24117000
H    2.35178100   3.82097900  -0.35543700
H    4.44029400   2.99250400   0.68542500
H    4.50154700   2.27279300  -0.88707900
H    4.81794500   0.04705400   0.62735700
H    6.03217800   1.25078900   0.89878700