14

N    3.01363500  -0.94765600  -0.46589700
C    2.51477700   0.16577800   0.25593500
C    3.45397000   1.38208000   0.05164200
O    3.41861700   1.82826100  -1.29980500
C    2.93257800   3.04220300  -1.32950300
C    2.68206800   3.46358200  -0.03341300
O    3.02077800   2.51064400   0.79816100
H    2.55732600  -1.13991300  -1.34975900
H    3.14180600  -1.79488700   0.07414000
H    2.50323200  -0.01320200   1.34136400
H    1.50069300   0.49743300  -0.03424000
H    4.49273100   1.13687300   0.32039200
H    2.79471000   3.53957400  -2.28962100
H    2.28085500   4.39819200   0.35869500