15

C    1.10076800   0.05672800  -0.56514000
O    2.50482900   0.21903400  -0.35108500
C    2.95608200   1.40703100  -0.00714000
N    2.43042900   2.52773000   0.20046300
N    4.38190200   1.29660300   0.14240400
C    5.15966400   2.30676100   0.48438400
C    6.54232800   2.17741200   0.62393900
H    0.95844800  -0.99219200  -0.84036500
H    0.76312000   0.70619500  -1.38620300
H    0.54667000   0.27772900   0.35901900
H    1.41941300   2.57294900   0.08723500
H    4.76923900   0.36644500  -0.03591800
H    4.63286700   3.25390400   0.64962100
H    7.05320400   1.22481200   0.45544700
H    7.13874700   3.04608200   0.90897900