15

C    2.76594500  -1.03225900   1.33956300
C    2.89230300  -0.31972300  -0.05065100
N    3.25561900   1.03775900   0.11350900
C    4.63854800   1.49443100   0.08593500
C    4.83326400   2.96015100   0.27047700
O    5.46335900   0.64079200  -0.06615800
H    2.44661700  -2.06077100   1.12540800
H    2.01478100  -0.54559700   1.97482700
H    3.74459200  -1.04483200   1.83572700
H    1.90676400  -0.35040800  -0.54394600
H    3.67161200  -0.82023000  -0.64118300
H    2.52890100   1.70824400   0.39232700
H    4.28137400   3.51992200  -0.50070900
H    5.90276500   3.18542000   0.19280100
H    4.46625400   3.27827600   1.25894100