12

C    0.95853300  -0.08079300   0.00374800
C    2.48218900   0.07640900  -0.00077100
C    2.98136000   1.41517800  -0.00056500
C    3.41720600   2.58127400  -0.00004400
C    3.89164500   3.82999600   0.00010300
C    4.32920600   4.98431900   0.00022100
H    0.71385000  -1.15025500   0.00394700
H    0.51170200   0.37708900  -0.88841200
H    0.51695600   0.37624700   0.89893900
H    2.95845800  -0.42359200  -0.87144500
H    2.96323000  -0.42447300   0.86694700
H    4.71351500   5.99656200   0.00040100