14

C    1.18210000  -0.24689100   0.42995300
C    2.62450800  -0.00368200   0.09066400
O    2.84939300  -0.05460600  -1.26257400
N    4.14640600   0.19461200  -1.58363300
C    4.56342900  -0.34127500  -2.65615500
C    3.16686600   1.46380300   0.54669600
O    2.72514800   2.07080600   1.43748400
H    1.02831700  -0.09724200   1.50654000
H    0.92337600  -1.28480700   0.17843400
H    0.52348400   0.43092200  -0.12968000
H    3.35111400  -0.63176800   0.64889300
H    5.57586600  -0.07402500  -2.97096500
H    3.95578200  -1.04638300  -3.23755700
H    4.04454500   1.71587600  -0.12789800