17

O    0.69119400   0.00899500  -0.00449200
C    2.00219800   0.07826400   0.39047000
C    2.62624200   1.36658900   0.04721000
C    1.84686900   2.38223500  -0.53927700
C    4.06908100   1.58425400   0.29791700
C    4.84071400   0.46847600   0.92637100
C    5.97303000  -0.02542600   0.41872400
H    0.28357100  -0.81338000   0.28638200
H    2.67153000  -0.69940700  -0.06028000
H    2.15776400  -0.06515500   1.48647800
H    0.80723500   2.17791700  -0.80958300
H    2.27202400   3.37056800  -0.73767200
H    4.12032900   2.50371000   0.92781300
H    4.53280900   1.92045100  -0.65145700
H    4.46085500   0.07203000   1.87480800
H    6.40217500   0.34899100  -0.51579000
H    6.51659900  -0.82378700   0.92845800