18

C    1.52442500  -0.11395900   0.44113800
N    2.35018700   0.36603600  -0.66359500
C    2.26754500  -0.40725200  -1.90156000
C    3.19830500   1.36596400  -0.55442200
C    3.58289400   2.06287500   0.69810800
C    4.85562000   1.29962700   0.77695100
O    6.01889600   1.75945300   0.37195000
H    1.22134800   0.71067500   1.09544300
H    2.06588500  -0.87459300   1.02547300
H    0.61821200  -0.57308700   0.02840000
H    2.55759100  -1.44992000  -1.70410900
H    2.93974300   0.01497600  -2.65690000
H    1.23632100  -0.38852500  -2.28038500
H    3.71209000   1.66632600  -1.47193300
H    2.92280200   1.88989800   1.55646600
H    3.72722300   3.14328000   0.55351200
H    4.88063000   0.26692200   1.13142900
H    6.02186200   2.71601800   0.22794600