13

C   -1.44058800   0.75112600   0.54604400
C   -1.17242600  -0.48490100  -0.24532000
C   -0.21073400  -1.45414700   0.23479800
N    0.92638400  -1.01117100   0.67755300
N    1.43744100   0.09963400   0.41169500
C    0.92405500   1.01237300  -0.35553500
C   -0.50295300   0.97022500  -0.59359200
H   -2.43662600   1.17958200   0.42152300
H   -1.03450900   0.80705100   1.56029100
H   -1.94785900  -0.85669000  -0.92020800
H   -0.38831200  -2.53284500   0.22072700
H    1.58547300   1.75726600  -0.80607100
H   -0.86722300   1.49211600  -1.48237500