18

C    0.98571500  -0.04156100  -0.03615500
C    2.50909700   0.00289100   0.01770400
N    2.98468200  -0.11759700   1.31905000
C    3.10248700  -1.28672700  -0.84442900
C    3.28417500  -0.65012400  -2.19041900
C    3.33350500   0.67852500  -2.14411700
C    3.12861000   1.20258400  -0.75145200
H    0.66085800  -0.04037100  -1.08454900
H    0.56263300   0.84451300   0.45881800
H    0.58788400  -0.94709600   0.44530700
H    3.95385800   0.10758900   1.55117600
H    2.41569100  -0.52647200   2.06332000
H    2.37641600  -2.11012000  -0.78710800
H    4.05713600  -1.62507600  -0.41246100
H    3.38621200  -1.26946900  -3.08500700
H    3.52063800   1.33616100  -2.99394700
H    4.08465800   1.54012800  -0.31041100
H    2.43783700   2.05828300  -0.68678600