15

C    0.99049900  -0.09065400  -0.14549600
C    2.48347900  -0.06242100   0.03716500
C    3.08037100   1.51327400   0.03404300
C    2.47550900   2.27342000   1.07928700
C    1.93870300   2.90661300   1.97508200
C    4.50509700   1.46199200   0.02791000
C    5.72469800   1.38043900   0.00689100
H    0.69041400  -1.15195100  -0.15819900
H    0.67305700   0.35005100  -1.10083400
H    0.45245200   0.39648900   0.67814400
H    3.03002900  -0.53947100  -0.78665200
H    2.81940900  -0.47570400   0.99748900
H    2.69225900   1.82306100  -0.96027700
H    1.46908000   3.47798300   2.76228700
H    6.80325000   1.32110500  -0.01383300