17

C    1.02188100  -0.72809100   0.64168600
C    2.16190300  -1.07725100  -0.31539100
C    2.60392900  -2.53764900  -0.22098800
O    1.64675400  -0.89455300  -1.64309200
C    2.23288300   0.02320500  -2.47866400
C    1.63307400   0.12285400  -3.77897000
C    1.15703400   0.23848100  -4.88814300
H    0.71993700   0.32163800   0.52699200
H    1.39091000  -0.88012900   1.66598700
H    0.15413500  -1.38042700   0.47557100
H    3.01670800  -0.39456000  -0.17900500
H    1.75995300  -3.21714600  -0.40016400
H    2.98502600  -2.70357900   0.79670400
H    3.40721900  -2.75209700  -0.93858900
H    3.32717400  -0.20816800  -2.55794500
H    2.25048700   1.01990800  -1.96582100
H    0.73088200   0.33922000  -5.87470200