13

C    1.05370200  -0.28911800   0.48697400
C    2.20494500   0.18219100  -0.38063200
C    2.68836400   1.56233100  -0.18284000
C    3.62266700   2.17130000  -1.04814500
C    2.23556800   2.32270900   0.92118600
N    1.85431500   2.94761200   1.82754500
H    0.81546300  -1.33263700   0.24757700
H    0.15144200   0.31565300   0.31023700
H    1.30168800  -0.23459300   1.55724800
H    2.02007100   0.04386900  -1.46596700
H    3.11375300  -0.45163900  -0.22506600
H    4.01417000   1.61549100  -1.90711500
H    3.96701100   3.19695700  -0.88060200