12

C    0.91827600   0.10013900  -0.00641900
C    2.37640400   0.18637200  -0.00169300
N    3.29035800   1.00762200   0.00226200
C    4.62057100   0.53620400   0.00497300
C    4.72086900  -0.80726200   0.00295400
C    3.37690200  -1.37804000  -0.00162400
O    2.83066300  -2.40304300  -0.00467400
H    0.49408800   1.11416900  -0.00201700
H    0.57990300  -0.46070800   0.87897800
H    0.58558500  -0.45021300  -0.90059300
H    5.43776200   1.25940500   0.00849200
H    5.62236400  -1.41959400   0.00438200