17

C    1.64374500   2.39396100   0.13198300
O    3.05531400   2.28994200   0.31785500
C    3.74772600   1.36778800  -0.47934600
C    5.22611600   1.74650300  -0.42386800
C    6.13948400   1.09330400  -1.44346800
C    5.19831300   3.29489400  -0.47601000
O    6.00211600   4.06593200  -0.82857000
H    1.29894000   3.20786400   0.77841600
H    1.17080700   1.45191400   0.44786500
H    1.40107800   2.60412800  -0.92093000
H    3.36734100   1.36461500  -1.51645500
H    3.63275800   0.35054300  -0.06083000
H    5.59740700   1.59617600   0.61004400
H    5.82547700   1.31536900  -2.47272500
H    6.10765000   0.00333900  -1.29841700
H    7.17948900   1.41679300  -1.30921000
H    4.13094400   3.55144300  -0.04023000