11

C    0.94054400   0.05562500  -0.05325600
C    2.41012500  -0.00995200  -0.05064800
C    3.16598200  -1.20411400   0.08795500
C    2.54322400  -2.44240900   0.23629700
N    2.02199700  -3.48253200   0.36085800
C    3.16176800   1.18100300  -0.19432900
N    3.77681500   2.16230000  -0.31273400
H    0.60714000   0.74428600   0.74727300
H    0.46415200  -0.92444800   0.06541700
H    0.60111800   0.53657400  -0.99123000
H    4.26297500  -1.17510000   0.08088700