13

C    0.89508900  -0.02281500   0.28426900
C    2.08716200  -0.01731900   0.09941600
C    3.52834700  -0.01313900  -0.11425400
C    4.13390800  -1.21910400  -0.86380900
C    4.81877900  -0.56724900  -2.00539200
N    4.63417400   0.74395700  -2.05579300
N    3.91723700   1.07976400  -1.03372100
H   -0.16955700  -0.03028300   0.45346900
H    4.05095300   0.17132500   0.84328200
H    3.36108200  -1.92069400  -1.22563500
H    4.83354900  -1.81548800  -0.25562500
H    5.42644200  -1.05169100  -2.77355300
H    3.62992800   2.05888800  -0.92987900