14

C    0.85526500   0.00574500  -0.02134100
C    2.26398800   0.27542000   0.28973200
O    2.64474000   0.26668400   1.49320500
C    3.55432000  -0.81157400  -1.33906400
C    3.33240900   0.54132200  -0.73897000
O    4.41006300   1.02889500  -0.00107000
H    0.69064200  -0.16302600  -1.09099100
H    0.28205500   0.89721100   0.29384100
H    0.48230300  -0.83753600   0.57852400
H    3.59955500   0.55124600   1.51166400
H    3.02729900  -1.12002600  -2.24362500
H    4.19498700  -1.52163500  -0.80886400
H    2.94684300   1.26051900  -1.48645700
H    5.23776600   1.00744400  -0.49656200