10

C    0.88798300  -0.02370100   0.00000000
C    2.12403300  -0.01585600   0.00000000
C    3.46000200  -0.00143700   0.00000000
C    4.70018400   0.01978400   0.00000000
C    6.14216100   0.04114800   0.00000000
C    6.71604400   1.38762300   0.00000000
N    7.16528900   2.44959500   0.00000000
H   -0.19638700  -0.02988600   0.00000000
H    6.49324800  -0.54092900  -0.87768200
H    6.49324800  -0.54092900   0.87768200