15

C    1.10105100  -0.42487900  -0.19363400
N    2.52434000  -0.12153300  -0.12502000
C    3.05012800   1.08119700  -0.05260400
C    2.16746400   2.27987200  -0.02229700
C    4.47799600   1.17308700   0.00289600
C    5.13360800   2.40332400   0.07849900
N    5.67562200   3.43450100   0.14084600
H    0.96751600  -1.50829300  -0.11164000
H    0.68681600  -0.08111800  -1.15346100
H    0.56695800   0.07028000   0.62885700
H    3.16243500  -0.91709600  -0.14748000
H    1.55759200   2.27085300   0.89593600
H    1.47676200   2.27048500  -0.87914100
H    2.74789500   3.20880700  -0.04332800
H    5.09621200   0.26876700  -0.01223900