15

C    0.94131500  -0.01945400   0.12432100
C    2.45923500   0.05407900   0.01995800
C    3.15979500   1.11265800   0.90177900
C    4.33991000   0.28804800   1.27856600
O    5.42098000   0.21707600   1.66112800
C    3.19579200  -1.16095800   0.54889000
O    3.79377700  -1.94285000  -0.30968700
H    0.54819900  -0.82881500  -0.50568000
H    0.49750500   0.92334400  -0.22510500
H    0.61403500  -0.18923000   1.16131500
H    2.77286600   0.18840300  -1.02651600
H    2.61190800   1.34020500   1.83415500
H    3.46243400   2.05999200   0.42744700
H    2.87289200  -1.60134400   1.50857300
H    4.12252100  -2.76837300   0.08029400