12

C    1.52490600  -0.12637700  -0.06326000
C    0.76363100  -1.31282400   0.34106700
O   -0.55363800  -1.37418300   0.43182600
C   -1.48430900  -0.47511600   0.14073900
N   -1.47781100   0.72834800  -0.31500300
O   -0.32269500   1.41255200  -0.63320400
C    0.90480600   1.09960100  -0.55485000
H    2.29084300  -0.41181000  -0.81376900
H    2.16017300   0.20907200   0.78943800
H    1.25922600  -2.23283200   0.65171900
H   -2.48986900  -0.85790500   0.33705500
H    1.54812500   1.91924500  -0.89778800