13

C    1.00462300  -0.10603400   0.70762300
O    2.35555100   0.34830800   0.88122600
C    2.87626000   1.14048600  -0.03792000
C    2.47495100   2.84551500   0.49727300
O    2.09960300   3.60519200  -0.28946000
C    4.29832200   1.27505700  -0.03490700
C    5.49878300   1.45204100  -0.04604000
H    0.79771100  -0.76800600   1.55341500
H    0.91595400  -0.65472100  -0.24054300
H    0.31314400   0.75098300   0.72267000
H    2.38932300   1.14915900  -1.02905400
H    2.65874800   2.91460100   1.59255600
H    6.57002500   1.58817500  -0.06233000