16

C    0.95637000  -0.06545900   0.23597700
C    2.43539800   0.06799500  -0.09348800
C    3.29590900   1.08245400   0.71062600
N    4.16435900   0.01066200   1.15338800
C    5.34526200  -0.05756600   1.93428900
C    3.35922500  -1.01133700   0.45366100
O    3.53040900  -2.17672500   0.47180200
H    0.53498500  -0.94126400  -0.27515600
H    0.41493900   0.82451500  -0.11197500
H    0.78969700  -0.17963500   1.31693900
H    2.59068100   0.16895500  -1.18021900
H    2.79871700   1.56971200   1.57081300
H    3.84728400   1.85781500   0.14975600
H    5.63055900  -1.10830100   2.07157300
H    5.17597800   0.44637500   2.90319100
H    6.15265800   0.50115400   1.42209800