17

C    1.67907100  -0.04915500   0.06818400
C    0.81957300  -1.23425600   0.53071500
C   -0.42741200  -1.51751700  -0.32383100
C   -1.50282300  -0.51103600  -0.16709100
C   -1.32408500   0.86458400   0.09525600
O   -0.24207000   1.53107900  -0.02636200
C    0.93835300   1.01543200  -0.71755500
H    2.47673400  -0.38904400  -0.61176200
H    2.18617500   0.40764300   0.92952900
H    1.43464300  -2.14433400   0.54700200
H    0.49299400  -1.07979900   1.57050800
H   -0.84990900  -2.50434500  -0.08358900
H   -0.16650600  -1.58862100  -1.40174700
H   -2.54749200  -0.84024000  -0.17035700
H   -2.16231200   1.46798000   0.46518000
H    1.55199900   1.90839900  -0.87505900
H    0.58502600   0.65334200  -1.69394000