13

N    1.65951900  -0.60025000  -0.66318000
N    2.60380800   0.03626300  -0.04007600
C    3.41032900   0.96649300  -0.79894000
O    3.15313000   1.08938700  -1.95674100
C    4.48585700   1.66771400  -0.01083300
C    4.54622700   1.29581300   1.40020700
C    4.59156200   0.98413300   2.56669900
H    1.06640100  -1.26472700  -0.16848300
H    1.56218200  -0.38458200  -1.66411100
H    2.77253600  -0.11776700   0.96184200
H    4.31265000   2.75085600  -0.13328700
H    5.44103000   1.45765600  -0.52238100
H    4.65894300   0.72842700   3.61133300