16

O    2.40219800  -0.57765500  -1.18371800
C    2.37023000  -0.08629200   0.05556400
C    3.17566300   1.40237400   0.03473900
C    2.40090700   2.54446600  -0.60081100
C    3.06335700   3.33094500   0.57333500
C    3.28754400   2.03661000   1.41549700
H    1.59584600  -0.38868700  -1.68878900
H    3.05228400  -0.65057000   0.71007800
H    1.37598500   0.09731100   0.48625500
H    4.14966600   1.22333300  -0.44207700
H    1.31181300   2.49710600  -0.46437300
H    2.65524300   2.80435500  -1.63469400
H    4.01166300   3.79197100   0.27310800
H    2.38327900   4.04981900   1.05455800
H    4.23435700   1.89415100   1.94837600
H    2.43342800   1.84825200   2.07928100