16

N    1.10308400  -0.01474000  -0.14283700
C    2.46741900   0.03399700   0.32980300
C    3.23319900   1.27260200  -0.11746400
C    3.44078000   1.29397400  -1.62199800
O    3.98562900   0.05573200  -2.12009200
C    3.69507500  -1.06758700  -1.54490600
C    2.97085300  -1.18794900  -0.37000300
H    0.87785300   0.25787600  -1.09581700
H    0.44492800  -0.65864000   0.28898700
H    2.47909000  -0.06585600   1.42221500
H    2.70770000   2.18815400   0.18795400
H    4.20839900   1.26851500   0.39217400
H    4.15474200   2.06585200  -1.93025900
H    2.50786900   1.46576100  -2.18376100
H    4.12768700  -1.93588800  -2.05227400
H    2.74481600  -2.18332500   0.01596200