14

C    0.98695500  -0.12496800   0.20545200
C    2.44616400  -0.10952200  -0.25691300
C    2.71078500  -0.95928200  -1.51114100
O    2.20912300  -1.96897500  -1.80805100
C    3.05055500   1.25321300  -0.48850700
N    2.72725300   2.28300000   0.23903100
O    3.93356100   1.42509800  -1.40418900
H    0.87688200   0.31927600   1.20558300
H    0.65036300  -1.16686300   0.27948000
H    0.33309700   0.40029100  -0.50406900
H    3.09101400  -0.58764600   0.50923300
H    4.03636000   0.60201300  -1.93590300
H    2.03478800   2.21128600   0.97813300
H    3.16879800   3.18723600   0.07389100