15

C    2.88328000  -0.96986800  -2.22046600
C    3.23249300  -0.50321900  -1.14879600
C    3.64853900   0.06583700   0.08187200
C    4.60216800   1.41140700  -0.23577100
C    3.83440000   2.61696000  -0.75824500
C    4.05711400   3.14627500   0.66195300
O    4.89281200   2.00288000   0.95868700
H    2.56564000  -1.40579400  -3.15550900
H    4.30132200  -0.59067900   0.67454700
H    2.80992300   0.45066700   0.68039400
H    5.48246100   0.97058800  -0.73329100
H    2.79956100   2.45843200  -1.08585500
H    4.38604700   3.16447200  -1.53585400
H    4.64486700   4.06861300   0.79158100
H    3.19021300   3.17315200   1.34242500