15

O    2.20887400  -1.54546400  -0.40736900
C    3.27572700  -0.69390500  -0.45894400
C    2.93057300   0.63025600   0.06732900
C    3.79259100   1.71403900   0.00526500
C    3.44259500   3.04994000   0.45941600
C    4.49308500   3.62605100   1.49044200
O    5.63164200   3.30969800   1.50102900
H    2.43349300  -2.40904600  -0.77142700
H    3.73789900  -0.58975300  -1.47012700
H    4.14627200  -1.02311300   0.17638700
H    1.94406200   0.73542900   0.53766600
H    4.81003500   1.56591700  -0.38074700
H    2.42252500   3.14120200   0.85585400
H    3.57093700   3.78384500  -0.36333800
H    4.04518200   4.38504800   2.17309300