16

C    0.97704700   0.07579000  -0.09533900
C    2.50948600  -0.04645800  -0.01567400
C    3.05158100  -1.28316200   0.68437100
O    3.97275100  -0.74578700   1.67385600
N    4.00219200   0.54760400   1.69967300
C    3.17297500   1.03196200   0.76297300
C    2.98832700   2.47588500   0.61836300
H    0.57273300  -0.76598800  -0.67242500
H    0.68802400   1.00313700  -0.60697000
H    0.52735600   0.06341200   0.90756800
H    2.91444900   0.02584800  -1.04545300
H    3.64209500  -1.97570300   0.06792000
H    2.30485300  -1.85855200   1.25453500
H    2.86908700   2.75730800  -0.43799400
H    3.79970300   3.03614200   1.09909500
H    2.03907700   2.74505800   1.12314700