13

C    0.77343800   0.22185400   0.44016200
C    2.11313100   0.14512800   0.11711400
C    2.97350200   1.25621900  -0.13208300
C    2.56024900   2.71579700  -0.09613300
O    3.31533100   2.99832700   1.12673800
C    3.77346800   1.80773000   1.35145400
O    4.43453900   1.23678600   2.11267100
H    0.19017200  -0.69171900   0.58294000
H    0.24285800   1.17180800   0.54866000
H    2.57837300  -0.84500100   0.06626200
H    3.85773600   1.02923700  -0.74795900
H    1.50163200   2.93480400   0.08087900
H    2.95460000   3.32800300  -0.91537600