12

C    2.81078800  -1.14170600   0.68139100
C    2.25444500   0.05808400   0.33975500
C    3.02976400   1.21803900   0.00922000
C    2.37032800   2.41075400  -0.33036800
C    4.44474000   1.20831500   0.01170300
C    5.65929100   1.22838900   0.00581100
H    2.17947800  -1.99960400   0.92587500
H    3.89580800  -1.27925800   0.72037100
H    1.16634400   0.16169000   0.31045400
H    1.27744600   2.45611600  -0.34308700
H    2.93463800   3.31116200  -0.58692600
H    6.73873600   1.25065500   0.00100100