21

C    2.48864000  -0.64791300   1.40657500
C    2.81721400  -0.24935800  -0.07018900
C    1.61862100  -0.51298900  -0.98835300
C    3.17591200   1.17371400  -0.01760900
C    4.48733900   1.71282100   0.06567800
C    5.67357400   0.83554000   0.16214000
C    4.67955800   3.17513000   0.03604800
H    3.34541500  -0.50731300   2.07992500
H    2.22062100  -1.71431700   1.40350600
H    1.63274300  -0.07601200   1.79182000
H    3.67922200  -0.85388100  -0.39135400
H    0.73316100   0.05303900  -0.66172800
H    1.36531800  -1.58149000  -0.96274200
H    1.84282000  -0.24205600  -2.02931100
H    2.34622300   1.89327600   0.00607900
H    5.49350500  -0.07209000   0.75492100
H    6.55171700   1.37290900   0.54182700
H    5.91891700   0.49588500  -0.86477600
H    3.78191600   3.73703500  -0.24843500
H    5.52844000   3.44477300  -0.61318500
H    4.98610600   3.49234200   1.05367200