15

N    1.06716800   0.36235500   0.98729000
C    2.10084900   0.03322200   0.25640500
N    2.26330400  -1.19669200  -0.21511300
C    3.21559700   1.02774800   0.04575000
C    2.64099000   2.42467900  -0.32068300
O    2.60570600   2.77401700   1.06089700
C    3.56847300   1.76082400   1.36245200
H    1.02783200   1.30496600   1.38681800
H    0.30185700  -0.28641700   1.15699200
H    2.41392800  -1.35012300  -1.21903400
H    4.02478100   0.60386700  -0.56078500
H    1.65665200   2.48055800  -0.80884400
H    3.37346200   3.01997500  -0.89031900
H    4.60146600   2.14439200   1.35265100
H    3.37280000   1.24797200   2.31597200