16

C    0.69196800   0.15127000   0.82223600
N    2.01285400  -0.17909300   0.28504400
C    3.10195800   0.49735500   0.58972500
O    3.19822000   1.48448600   1.28336600
C    4.49484800  -0.01816900  -0.05544400
C    4.65529800   0.66634500  -1.34059300
C    4.28986000   0.11000700  -2.52572500
H    0.46864600  -0.46237100   1.70565700
H   -0.05954100  -0.03357000   0.04555000
H    0.67333600   1.21181300   1.10043400
H    2.11153000  -1.02388800  -0.26789600
H    4.38192500  -1.11054800  -0.13629200
H    5.26212900   0.23723300   0.68352200
H    5.08917300   1.67151500  -1.32654100
H    3.83262300  -0.88308200  -2.58332500
H    4.47612600   0.62715700  -3.47051800