17

C    1.69468600   0.08343500   0.63460600
C    2.47766800  -0.06957900  -0.65733000
C    1.70253900  -0.36489500  -1.85927300
C    2.27723900  -0.84988400  -3.02443900
C    3.16384900   1.31792600  -1.06820400
C    4.55476200   1.52730300  -0.62665600
O    4.19367800   1.25177700  -1.97425800
H    2.35709300   0.41188900   1.44601500
H    1.25600300  -0.88113600   0.92720800
H    0.87971300   0.81478800   0.53114600
H    3.33030800  -0.76017100  -0.55588700
H    0.62886000  -0.13051100  -1.85921100
H    3.36617800  -0.82292200  -3.15747900
H    1.66235600  -1.25111700  -3.83625000
H    2.44291900   2.13592400  -1.18832800
H    5.05618800   0.71188900  -0.09433700
H    4.92881400   2.53885100  -0.44268700