16

C    0.83611900   0.10368500   0.03419900
C    2.29859000  -0.01161800   0.00988100
C    3.16631700   1.07605500  -0.02891500
C    4.66565100   0.97507100  -0.00556700
C    5.33672300  -0.18260100   0.68830400
O    4.69013600   0.92733100  -1.43241800
H    0.42697000  -0.44737700  -0.83511000
H    0.47324700   1.13826000   0.02047800
H    0.43100600  -0.43129800   0.91163700
H    2.72172000  -1.02308900   0.05369500
H    2.75548000   2.07577900  -0.20737900
H    5.11072000   1.93405400   0.28603800
H    4.94367600  -1.15849100   0.36459600
H    5.20199400  -0.09729700   1.77572200
H    6.41479700  -0.15921600   0.47875300
H    4.70898000   0.00660000  -1.74272300