15

O    1.01558000   0.04663200   0.38110300
C    2.34430300   0.05055400   0.04891700
C    3.19861600   0.92302200   1.00346500
N    4.04278400  -0.24381500   1.26686400
C    3.18114100  -1.17252700   0.53754200
C    5.21212600  -0.41246700   1.89346200
N    5.85284100   0.52752500   2.53612100
H    0.45767800  -0.07939000  -0.39292600
H    2.54111900   0.28373000  -1.00931300
H    2.63473500   1.22095000   1.90405800
H    3.75129700   1.78372500   0.59568800
H    3.73158500  -1.79459300  -0.18517200
H    2.61338700  -1.81154100   1.23547500
H    5.62165600  -1.43107200   1.87422900
H    5.41545300   1.45477600   2.45532300