16

C   -0.97931700  -0.04919900   1.09090800
C   -0.59676700  -1.11344700   0.00481900
C   -1.03106700  -0.02392200  -1.03579200
N   -0.58560500   0.88001000   0.02824300
C    0.80943200   1.26720500  -0.00110000
C    1.59780800  -0.05002600  -0.03594100
C    0.91778300  -1.19544100  -0.03300900
H   -0.39567700   0.02845000   2.01543700
H   -2.06173100  -0.00538500   1.27626700
H   -1.16176500  -2.05427100   0.00738600
H   -2.12118800   0.02365900  -1.16720100
H   -0.49303200   0.07600600  -1.98550300
H    1.00148500   1.87719100  -0.89680500
H    1.04516900   1.85585200   0.89844300
H    2.68706100   0.02176100  -0.06159300
H    1.40926000  -2.16969300  -0.05654800