16

C    1.67796500  -0.39556600   0.37636800
N    2.14106500   0.46126300  -0.68203000
C    2.63546700   1.80402400  -0.50384000
C    4.08814400   1.47799900  -0.30184100
C    4.99708900   1.51974300  -1.31827700
C    6.35579300   1.19047100  -1.15317000
C    7.53304700   0.91825900  -1.02817700
H    2.32731700  -1.27919000   0.48359000
H    0.66547400  -0.75465300   0.12304400
H    1.63870500   0.15938700   1.32103300
H    2.25917200   0.04504600  -1.60696500
H    2.16392700   2.27770600   0.36628500
H    2.44827900   2.40508700  -1.40352300
H    4.38695900   1.11582400   0.68648100
H    4.68771500   1.86045900  -2.31505500
H    8.57776200   0.67684500  -0.91868200