18

C    0.56918800   0.60797200  -0.13381000
C    2.00365300   0.22833200  -0.13650600
C    2.94513400   0.70730600   0.91969500
C    4.19237400  -0.18527700   0.98635600
O    4.99435900  -0.15415700  -0.15240500
C    3.72930700  -1.59735000   1.11669300
N    4.19332800  -2.49696200   0.33076200
H   -0.02634100  -0.04951000  -0.78250900
H    0.43487400   1.63736000  -0.52151000
H    0.13701400   0.59503400   0.87910500
H    2.45279000  -0.12155700  -1.07335900
H    2.45895600   0.71671600   1.91047500
H    3.27822500   1.75197500   0.75001700
H    4.76890800   0.03845700   1.90943600
H    5.42229900   0.70241800  -0.25637100
H    3.01848500  -1.88017900   1.90008200
H    4.85750400  -2.19113900  -0.39060000
H    3.91510200  -3.47567500   0.38147600