18

N    2.28284200  -0.56824500  -1.21176000
C    2.41835500  -0.06162800   0.08162500
C    3.14519200   1.33928300  -0.05919300
C    2.40381500   2.59011500  -0.52092500
C    3.15774300   3.34690600   0.59353900
C    3.39822400   2.02206500   1.35918600
O    4.54862500   1.74797600   2.01648300
H    1.51055200  -0.28223700  -1.81161900
H    3.04884000  -1.06276300  -1.66649700
H    3.06109700  -0.70073200   0.70324300
H    1.44029700   0.09848600   0.55492100
H    4.10956000   1.20950500  -0.57526800
H    1.32464900   2.54080400  -0.31360500
H    2.56230100   2.92469000  -1.55276300
H    4.10639000   3.77072100   0.23164500
H    2.60174700   4.11028600   1.15523100
H    2.55890700   1.78131800   2.02896500
H    5.30876300   2.14774200   1.57564000