17

C    4.20131500   0.22628400  -1.73809900
O    3.25167100   1.12003900  -1.13393400
C    3.40876200   1.66569900   0.02543100
C    2.32750100   2.51172300   0.40252000
C    4.57307200   1.43099000   0.84729000
C    5.10744400   2.55943500   1.76082200
C    4.43568500   1.42120100   2.38811300
H    3.76441800  -0.04772000  -2.70235100
H    4.32552300  -0.66632700  -1.11005900
H    5.15816700   0.74447600  -1.88816200
H    1.48869600   2.62746200  -0.28723800
H    2.31811400   3.04161900   1.35552000
H    5.32667000   0.75987900   0.43640600
H    4.60150400   3.52642500   1.71135000
H    6.19771800   2.62032000   1.78717400
H    5.03319800   0.64704700   2.87469400
H    3.43276600   1.54598800   2.80292900