17

C    3.80436800  -0.24158300   2.56683700
C    3.59241200  -1.07048500   1.35285100
C    2.56617400  -2.02125400   1.22153500
O    4.35367000  -0.97184600   0.31217900
C    5.44927600  -0.10275300   0.17874100
C    6.57518800  -0.64574900  -0.66652400
C    5.67682900   0.40085700  -1.22535500
H    4.80699400  -0.42291200   2.98741400
H    3.05570000  -0.47698700   3.33087800
H    3.73151100   0.83015900   2.31969800
H    1.86128400  -2.19167100   2.03671500
H    2.47470500  -2.59347700   0.29533900
H    5.64613900   0.52873100   1.04490800
H    6.45904000  -1.66889200  -1.03102800
H    7.58300900  -0.37720900  -0.34168500
H    6.03086600   1.43104100  -1.30729400
H    4.94185600   0.09861200  -1.97478200