17

C    1.09649800  -0.06648200   0.97186400
N    2.09297000  -0.21011300  -0.07750600
C    2.59779600  -1.53985000  -0.42364800
C    2.27065200  -1.96611600  -1.85253500
O    3.03602300  -1.19039200  -2.72953300
N    2.39951500   0.85970600  -0.74892200
C    3.49935400   1.01418000  -1.40121500
H    0.85607200   0.99533200   1.08550400
H    1.50250500  -0.47523300   1.90875900
H    0.19323300  -0.63246000   0.69587600
H    2.15614500  -2.24335200   0.29201800
H    3.69186800  -1.54880500  -0.27848300
H    1.18489200  -1.85752200  -2.02885500
H    2.51859200  -3.03978200  -1.92401800
H    2.78470000  -1.36615300  -3.64275900
H    3.54421700   1.84368500  -2.11212100
H    4.39282300   0.39953200  -1.23249100