16

C    0.78408800  -1.25220700   0.82000100
C    2.04152500  -1.10514900  -0.26684700
C    3.09649100  -2.13449000   0.04683500
O    1.45313800  -1.32999500  -1.46253400
C    0.80675400  -0.27352800  -2.18551700
C   -0.62883200  -0.54571800  -2.20625400
N   -1.76292300  -0.75646000  -2.17598700
H    0.03088700  -0.49094100   0.58627700
H    1.28664700  -1.06637800   1.77825100
H    0.39336000  -2.27178600   0.72954500
H    2.33732600  -0.04515900  -0.14364700
H    2.70915700  -3.15754100  -0.05799300
H    3.46874400  -1.98545300   1.06783600
H    3.93133700  -2.00163800  -0.65934600
H    1.22372800  -0.31792000  -3.20565000
H    1.02743600   0.70663900  -1.73471800