19

C    2.95507100  -1.03835800   0.79120700
C    2.83211700  -0.30598000  -0.48526100
C    3.08237200   1.76706300  -0.14117200
C    2.54819100   2.29290900  -1.43617200
O    2.26536500   1.95989400   0.87230600
C    4.52644100   1.67877600   0.05510500
C    5.15132700   1.74912300   1.24580100
H    2.71437400  -2.09617000   0.56639000
H    2.22117700  -0.71158900   1.54093500
H    3.97358500  -1.02674700   1.20230300
H    1.82371700  -0.14943600  -0.88161400
H    3.60480200  -0.45574600  -1.24648900
H    3.07279200   1.86725400  -2.29992200
H    2.71952900   3.38296600  -1.43488400
H    1.46731300   2.12381500  -1.51815500
H    2.68044200   1.80358400   1.73274700
H    5.11331200   1.57354300  -0.86087300
H    4.63077400   1.87248600   2.20171400
H    6.24145400   1.71265500   1.30371200