16

C    0.98905900  -0.08602900   0.27338400
C    2.41163600   0.14619900  -0.28925100
O    2.60431900  -0.41286900  -1.53039500
C    2.81337200   1.57207800  -0.32683500
C    3.24861200   2.14515300  -1.59966400
C    2.80747500   2.31994400   0.86581200
H    0.86299800   0.32330000   1.28352800
H    0.81066400  -1.16864900   0.32938300
H    0.24970000   0.36719800  -0.40069400
H    3.12394400  -0.28493300   0.46818100
H    2.27811100  -1.32003300  -1.55684100
H    4.10674500   1.55363500  -1.97629400
H    3.50058900   3.20956300  -1.55161600
H    2.47346000   1.93713200  -2.36297600
H    2.56802100   1.86121600   1.82956600
H    3.05029000   3.38608600   0.85228300