15

C    0.86199700   0.29020000  -0.07347700
N    2.28436600   0.59311100   0.07648200
C    3.20650300  -0.50883800   0.01769000
C    3.80014600  -0.86347000   1.41066400
O    3.99649700  -0.03164600   2.23913500
C    2.67361400   1.83062200   0.43505400
N    3.87670800   2.21864400   0.75660600
H    0.27735300   1.21566300  -0.03232800
H    0.53926700  -0.38037500   0.73779900
H    0.70072200  -0.20685100  -1.04028500
H    4.07238000  -0.26550800  -0.62566900
H    2.70589200  -1.38309900  -0.41584400
H    4.06188900  -1.93546400   1.54984200
H    1.86584700   2.57033200   0.50467200
H    4.65189400   1.58951900   0.52676900