15

C    0.93739100   0.08061700  -0.17724400
C    2.39516600   0.06029900  -0.04822200
C    3.31079600   1.16830100   0.01926200
N    4.49834800   0.63913800   0.14478500
N    4.51650300  -0.74426600   0.17400700
C    3.27913900  -1.11842900   0.06083400
C    2.85368000  -2.53826000   0.04555800
H    0.53053400   1.09019100  -0.30405300
H    0.48236700  -0.38336700   0.71904500
H    0.62252500  -0.55879200  -1.02144800
H    3.12811800   2.24205900  -0.02015500
H    5.38993600   1.13024300   0.22085100
H    2.14729200  -2.73785300   0.86592000
H    3.72585500  -3.19307500   0.15463700
H    2.34158500  -2.77561300  -0.89972800