21

C    2.16348200  -0.91914100   0.02426500
O    2.69688900  -0.06116600  -0.96701900
C    2.72444200   1.27535000  -0.79715100
C    4.19620500   1.62837300  -0.18480300
C    4.28720300   3.13475700   0.05449600
C    5.67707100   3.35440200   0.69257900
C    4.10618600   3.97132800  -1.20447900
H    1.40303500  -1.53750800  -0.48011300
H    1.73228000  -0.35429300   0.86131900
H    2.97731900  -1.58798400   0.34716200
H    1.96475300   1.64993800  -0.09337300
H    2.71477600   1.75730300  -1.78660600
H    4.93502400   1.26709000  -0.91451300
H    4.27898800   1.04773100   0.74571800
H    3.52475100   3.41943900   0.79852200
H    6.48437800   3.10713800  -0.01226900
H    5.81145500   2.76329200   1.60892500
H    5.76791300   4.41819300   0.95876700
H    4.80903500   3.66522000  -1.99537100
H    4.29252500   5.03196400  -0.98545300
H    3.08044900   3.91608800  -1.60392200