14

C    0.64322200  -0.23944700   0.07167400
C    2.11932400  -0.32908200  -0.31804300
N    2.97012600   0.38151600   0.58728400
C    4.06082800   1.22199600   0.16971400
C    4.85596000   1.69649600   1.29630500
N    5.46790700   2.05857900   2.20442500
H    0.06756400  -0.85488900  -0.63179000
H    0.28225500   0.79556200   0.00602800
H    0.46456600  -0.62796000   1.08453800
H    2.32473400   0.02088900  -1.34026300
H    2.44972800  -1.39164800  -0.26321800
H    2.79229000   0.28453600   1.59601700
H    3.63981700   2.07625500  -0.40085300
H    4.68509600   0.65973400  -0.55270100