17

C    0.92376600   0.20574900  -0.21272600
C    2.38255900   0.09694800   0.03581600
N    3.18265400  -0.87011200  -0.58507400
C    3.59201100   0.37368100  -1.09180000
C    4.75791700   1.10224800  -0.55213000
C    5.90394000   1.36491700  -1.52087600
N    5.00212500   2.40236700  -1.11670100
H    0.59299100   1.24117400  -0.04596000
H    0.38370200  -0.42457800   0.51445100
H    0.64642500  -0.10924600  -1.22783000
H    2.77618900   0.49622900   0.97797400
H    2.71502100  -1.50103000  -1.24095900
H    3.31623600   0.61458500  -2.12579100
H    5.01741600   0.89209100   0.49123900
H    5.81232300   1.01930500  -2.55496400
H    6.91113200   1.30949700  -1.09467400
H    5.39701000   3.05561000  -0.44169000