19

C    1.24228000  -0.77405800   0.01281700
C    2.50952900  -0.31182200  -0.65982600
C    2.51107100   0.75021900  -1.73000600
N    2.98603600   1.01887300  -0.40930300
C    4.11239400   1.59492400   0.14140000
C    5.52640900   0.94411300  -0.50451200
N    6.65308700   1.51828800   0.03756100
H    1.45152100  -1.11114700   1.03731200
H    0.82146400  -1.61935400  -0.54840100
H    0.49603800   0.03088700   0.04983900
H    3.30569300  -1.06706500  -0.72941500
H    1.56035200   1.22412800  -2.00013500
H    3.25676800   0.71519800  -2.53358900
H    4.16768100   1.39901200   1.22041600
H    4.15783500   2.66881800  -0.08379300
H    5.44857200   1.12977600  -1.58474000
H    5.46401000  -0.13014700  -0.28248300
H    6.99820600   2.40913200  -0.30100400
H    7.01371800   1.21258100   0.93409400