18

C    0.77691800   0.09359000  -0.25648700
C    2.19984000  -0.09277900   0.14349000
C    3.21365600  -0.90808900  -0.54112200
C    2.88153300  -1.51959000  -1.90238100
C    2.73799400  -0.33070100  -2.87803300
N    3.20235200   0.81697900  -2.10707800
C    3.49036000   0.55389300  -0.82065100
H    0.42191600   1.10456500  -0.01381900
H    0.17320500  -0.61006200   0.34204100
H    0.57552200  -0.11859400  -1.31310500
H    2.44207400   0.18182200   1.17599500
H    3.94146200  -1.42516900   0.09298700
H    3.70514600  -2.17562300  -2.21082000
H    1.97021600  -2.13130400  -1.86534400
H    3.36354400  -0.43937100  -3.77697000
H    1.70606800  -0.15575600  -3.22220200
H    3.32170100   1.74017100  -2.51766700
H    4.11715400   1.24008800  -0.24861600