18

C    0.90473800  -0.06020100  -0.20860600
C    2.43000100   0.01222500  -0.03075000
C    3.18983000  -0.89160400  -1.01553500
C    2.90499100   1.38839200  -0.11295800
C    3.30049100   2.53967200  -0.18987300
C    3.82757800   3.86681100  -0.29433500
N    2.99147200   4.93620800   0.05144100
H    0.37904600   0.56577800   0.52548700
H    0.57503000  -1.09885300  -0.07071100
H    0.61383100   0.25933900  -1.21981900
H    2.67503600  -0.31349300   0.99831700
H    2.97675900  -0.60257600  -2.05486900
H    2.86298500  -1.93089600  -0.87543100
H    4.27527900  -0.84794000  -0.85263200
H    4.23126600   4.04442100  -1.32651600
H    4.78090400   3.95141600   0.29270200
H    2.03450700   4.78818300   0.37276000
H    3.32878800   5.89624900  -0.01148800