17

C    1.15831100   0.83946700  -1.45976300
C    1.97431100   0.95241700  -0.19151900
C    3.03414900   2.03191200  -0.23090900
C    2.68345700   3.27341400  -0.88253200
O    1.67219100   3.51971500  -1.51708700
C    4.27620500   1.93929600   0.32646100
C    5.36854000   2.93003500   0.42856000
H    0.33396900   0.12068900  -1.34394200
H    1.76231500   0.56629000  -2.33630300
H    0.64891100   1.80911500  -1.69335200
H    2.48953700  -0.00075400   0.01291700
H    1.31493700   1.13759600   0.67280400
H    3.38840000   4.13710900  -0.81522500
H    4.50994900   0.96067300   0.76600400
H    5.16542800   3.91620800  -0.00886800
H    6.27513500   2.51391800  -0.04053000
H    5.62148600   3.06662800   1.49331500