18

N    0.59611600  -0.77267000  -0.01850600
C    1.88316400  -0.90827000  -0.16490600
C    2.60250200  -0.60707800  -1.41803000
C    3.14883800   0.68789100  -0.89984400
C    4.45977000   0.79841000  -0.20832900
C    4.35436600   1.19547600   1.26532500
O    3.60637100   0.20541300   1.93680100
H    0.16079900  -0.86049000   0.89672900
H   -0.01855100  -0.56666400  -0.80348100
H    2.46672100  -1.14614200   0.73236900
H    1.93912200  -0.49550800  -2.28708700
H    3.39186800  -1.34385700  -1.62295700
H    2.50824700   1.57324700  -0.97526300
H    5.05583900   1.57436800  -0.72231800
H    5.02098300  -0.14559900  -0.28830900
H    3.87423300   2.18744700   1.35319900
H    5.37448600   1.27913800   1.67563600
H    3.69090600   0.32958700   2.88719000