11

O    2.03308800  -0.62957300  -0.85271300
C    2.16825400   0.17821200  -0.01121700
C    1.62069800   0.22877800   1.33180600
N    1.21262900   0.32048400   2.40988900
N    3.01146600   1.36484700  -0.27082500
C    4.16074100   2.05427500   0.23371500
C    2.95754300   2.79579000  -0.28489500
H    5.04668700   2.01387400  -0.41670900
H    4.35139400   1.91885900   1.30731600
H    2.20687900   3.24049100   0.38297600
H    3.03804800   3.25177500  -1.28248200