17

C    3.64708500  -1.14424600   0.86985400
O    2.72131900  -0.10418800   0.49361000
C    3.07683500   1.07883400   0.15905600
C    4.39510000   1.54607400   0.06144400
C    4.76035400   2.97283500  -0.23412500
C    3.75776200   3.83441700  -0.96971500
O    4.99838300   3.36907300   1.10913200
H    3.02446800  -2.00406800   1.13132300
H    4.23527300  -0.81648000   1.73765100
H    4.29219100  -1.38530000   0.01443500
H    2.22059200   1.71873800  -0.08349700
H    5.22473900   0.88914700   0.33800900
H    5.73234600   3.00058200  -0.74396600
H    2.78877300   3.89100100  -0.44836900
H    3.58709200   3.45255600  -1.98646200
H    4.15245600   4.85578700  -1.05403100
H    4.18823900   3.72969600   1.49719900