18

C   -1.71597100   0.87805300   0.51119600
C   -1.24660000  -0.33686400  -0.22586900
C   -0.34399300  -1.40173900   0.32869400
C    1.06399800  -1.33825700  -0.30927000
C    1.72038400   0.08107700  -0.15167600
N    0.74660600   0.98122800   0.43942100
C   -0.44308800   1.15073400  -0.19658100
H   -2.61176900   1.36951400   0.12408600
H   -1.65712900   0.83582400   1.60558200
H   -1.68730700  -0.52214200  -1.21082900
H   -0.27417400  -1.31781700   1.42527400
H   -0.78118500  -2.38693600   0.10693900
H    1.70985900  -2.10158800   0.14468500
H    0.99306500  -1.58143700  -1.37947700
H    2.60955200   0.05977000   0.48922700
H    2.01910900   0.47535000  -1.13450000
H    0.72871100   1.00851800   1.45892400
H   -0.40058800   1.52643300  -1.22480900