16

O    2.79534600  -1.13894000  -0.13203700
C    1.69536100  -0.30649100   0.09899100
C    2.19145500   1.10319600  -0.23749700
N    3.51487900   1.26583300   0.27132900
C    4.10045000   2.51161800   0.67446800
C    5.51887000   2.40938900   0.96726900
C    6.69754200   2.33475200   1.21146200
H    2.57742500  -2.06348400   0.02568000
H    1.36036500  -0.33555300   1.15146000
H    0.83082400  -0.53626100  -0.54471500
H    1.53400200   1.90963900   0.11936200
H    2.27584900   1.20452100  -1.34202000
H    4.06021000   0.38723700   0.30406800
H    3.52809700   2.87224300   1.55704900
H    3.89229200   3.25904200  -0.11827000
H    7.75095300   2.27271200   1.42980000