18

C    1.38381900  -0.56790000   0.62206600
N    2.09178800   0.33535800  -0.22744500
C    2.71546000   1.58520200   0.18640200
C    2.23658900   2.07313300   1.52283800
C    1.49983800   3.17279400   1.67283200
C    4.20823000   1.26922300   0.14705900
C    5.03218400   1.72295700  -0.80012100
H    2.10256200  -1.08662700   1.28846200
H    0.85752600  -1.31815900   0.02086100
H    0.69227900  -0.00152600   1.26436400
H    2.31626500   0.02779800  -1.17865200
H    2.48807600   2.31668500  -0.60924100
H    2.56723000   1.50537100   2.39973500
H    1.17706200   3.77763700   0.81989000
H    1.20136000   3.51785200   2.66515100
H    4.57363200   0.63776600   0.96407500
H    4.68486200   2.34934900  -1.62747300
H    6.10140900   1.50145700  -0.75956800