10

C    0.92381100   0.00601000  -0.00391700
C    2.15253200   0.04798300  -0.00167100
C    3.53152700   0.07171300   0.00086300
C    4.33435000   1.24715000   0.00218400
S    5.93561700   0.81326000   0.00518800
N    5.67025300  -0.85711800   0.00492000
C    4.40788400  -1.10885400   0.00263100
H   -0.15743600  -0.02827500  -0.00589900
H    3.98116800   2.28104100   0.00139800
H    4.04575100  -2.14126000   0.00210100