14

C    0.92228500  -0.06577500   0.06917200
C    2.42381100  -0.10673400   0.00418700
C    3.19765600  -1.18462900   0.22678700
C    3.11170600   1.15604800  -0.33615800
C    4.62178100   1.34205800  -0.45649900
O    2.46672300   2.16821400  -0.54921200
H    0.58043400   0.65160700   0.83043400
H    0.53082900  -1.05649000   0.32882800
H    0.49411400   0.23224300  -0.89978200
H    2.72965500  -2.14024900   0.48171700
H    4.28829500  -1.17627300   0.17034700
H    4.97059700   0.65632600  -1.24251400
H    5.05845400   1.08299300   0.51916400
H    4.86713500   2.37729900  -0.71946900