15

C    0.93274200   0.07787200  -0.26783700
C    2.42413400  -0.00103700   0.09438900
N    2.78400500  -1.23673300   0.75145700
C    3.38727400  -1.01868400   1.92272300
N    3.77494700  -2.07592400   2.64445200
C    3.48072400   0.41884300   2.13631000
C    2.91828000   1.01900300   1.06735700
H    0.66448400  -0.72633800  -0.96564700
H    0.73758700   1.03878600  -0.76123100
H    0.30977500   0.00518900   0.63357400
H    3.01985600   0.06823600  -0.84019000
H    2.60488800  -2.17552400   0.39333800
H    4.23237500  -1.78629600   3.51734700
H    3.93016000   0.88313200   3.01239500
H    2.81878600   2.09141600   0.89565900