19

C    4.12021000   0.20919400   0.16740300
C    5.50684600   0.78461000   0.07003400
O    5.37561600   2.23206000  -0.14058500
C    6.34249900   3.05245700  -0.26958500
C    7.71021700   2.64584300  -0.22279700
C    5.97940800   4.47971500  -0.47517800
C    4.49300400   4.79016500  -0.50685900
H    4.20227200  -0.87508200   0.32533400
H    3.55383200   0.38004800  -0.75765100
H    3.57065000   0.63951900   1.01505000
H    6.06851700   0.38516400  -0.78721200
H    6.08542800   0.64599900   0.99520100
H    8.01279400   1.60779300  -0.07383700
H    8.48800000   3.40339800  -0.34079600
H    6.48725000   4.79703000  -1.40649400
H    6.50333800   5.04939400   0.31657600
H    3.98879800   4.25586300  -1.32371200
H    4.34918200   5.86646400  -0.66275900
H    4.00496900   4.51312700   0.43760800