10

O    2.79368400  -1.12059800   0.14634700
C    2.17691400  -0.10376400   0.02868800
C    2.90132300   1.21719800   0.01158800
C    2.24584800   2.50571800  -0.12616500
S    3.34631300   3.74582800  -0.10490600
C    4.65535800   2.50753800   0.08794000
N    4.23582200   1.28601500   0.12594800
H    1.07081300  -0.05636100  -0.07241700
H    1.16912900   2.67077900  -0.23205700
H    5.70302500   2.82126800   0.16167500