17

C    0.94986400  -0.19244700  -0.02372100
C    2.46561300   0.00968000   0.03969100
C    2.91150100   1.37464600   0.01136700
C    3.28707800   2.55351500  -0.01363900
C    3.77782200   3.89538300  -0.03895600
O    2.82977600   4.85863900  -0.11839600
C    3.29025700   6.20432900  -0.14521900
H    0.73130200  -1.26723100   0.00531900
H    0.53421800   0.22020700  -0.95250800
H    0.45092400   0.28531200   0.82979600
H    2.99124800  -0.50760800  -0.78941100
H    2.91017100  -0.44496900   0.94906700
H    4.53279100   3.94781700  -0.87207900
H    4.45061800   4.00969600   0.85619900
H    2.39764500   6.83372000  -0.21223700
H    3.93286700   6.37648000  -1.02364100
H    3.84415700   6.44256400   0.77709600