17

C   -1.27424200  -0.79860400  -0.53380100
C   -1.24850600   0.72808500  -0.56777300
C    0.07282600   1.06897800   0.35198000
C   -0.02610800  -0.05619900   1.38500100
C   -0.03170300  -1.15833300   0.31942700
C    1.18987600  -0.72434000  -0.48490700
O    1.08259700   0.70002500  -0.50162300
H   -1.24004100  -1.24946400  -1.53373600
H   -2.17946000  -1.16332100  -0.02591300
H   -2.04950200   1.23063800  -0.00376700
H   -1.14440900   1.19053800  -1.55624900
H    0.14622500   2.13301800   0.60309300
H   -0.94701100   0.00747500   1.97798000
H    0.84390700  -0.06922300   2.05894700
H    0.02224200  -2.19443100   0.67135300
H    2.13858300  -0.95018100   0.04565100
H    1.29700700  -1.06030900  -1.52741300