15

C    0.94674100   0.05036800   0.13643300
C    2.38546000   0.02588600   0.06359900
C    3.61462000  -0.02780500   0.01666900
C    5.02497200  -0.04458300  -0.01294300
C    5.54129500   1.53087900  -0.16552300
C    5.45272300   2.09173900  -1.55110200
O    5.94616400   2.03431500   0.81552100
H    0.61806600   0.78690900   0.88744700
H    0.59378600  -0.93781000   0.48050500
H    0.49166500   0.27300500  -0.83833400
H    5.44514900  -0.52630000  -0.91084800
H    5.48526500  -0.41464300   0.91281100
H    6.25715800   1.63449400  -2.14939200
H    5.59056500   3.17899800  -1.51320800
H    4.48749800   1.82112300  -2.00066400