19

C    0.98986200  -0.08414600   0.03553300
C    2.50696900   0.03716000  -0.04882400
C    3.16003400  -1.35728000  -0.58781300
N    2.87235900  -1.48996100  -1.95961600
C    3.31922900  -0.46748200  -2.82489300
C    2.71707700   0.93559000  -2.31139600
N    2.97391700   1.05037900  -0.92705700
H    0.55811100   0.86702600   0.37523700
H    0.71807100  -0.86081700   0.76279800
H    0.53033900  -0.34517300  -0.92820400
H    2.93315900   0.20904100   0.94942700
H    2.74418100  -2.18717600  -0.00282600
H    4.24396900  -1.28524000  -0.41716000
H    2.01483800  -1.97361800  -2.21321300
H    4.41526800  -0.37687300  -2.79087600
H    2.99591600  -0.64088600  -3.85879100
H    3.19134300   1.75060900  -2.87227900
H    1.63906100   0.92690800  -2.52405600
H    3.84810000   1.50086000  -0.66754100