17

N    0.86102700   0.65234800   0.40868400
C    2.22021600   0.43101800   0.44117800
C    3.02330300   0.75717000  -0.78311900
C    2.73580300  -0.23514000  -1.95183300
C    3.83819500  -1.21487300  -1.83965400
N    4.78014400  -0.78353200  -1.08579800
C    4.52787100   0.55547600  -0.52093100
H    0.34521700   0.50048200  -0.44996700
H    0.32837700   0.42880100   1.24048400
H    2.68763500   0.57039600   1.41957000
H    2.83607300   1.79167800  -1.12692500
H    2.81053700   0.22989200  -2.95364600
H    1.75355800  -0.72794700  -1.90982500
H    3.91281400  -2.18750400  -2.33631300
H    5.64351600  -1.30061400  -0.91454300
H    5.17008300   1.27523100  -1.05094700
H    4.79885200   0.56099500   0.54269000