15

C    3.19625900  -0.33549800   0.09065700
C    4.34026200   0.04108200  -0.46944700
O    4.99623500   1.14258200   0.05310600
C    5.92678600   1.83305900  -0.53997300
C    6.22683900   1.69893800  -1.91274700
C    6.62810000   2.80407300   0.26850700
C    6.40121300   2.95983700   1.59051900
H    2.67867600  -1.21632100  -0.29101400
H    2.75839700   0.21554100   0.92556000
H    4.84614500  -0.47857900  -1.28495900
H    5.65525400   1.05567300  -2.58374400
H    7.03653700   2.29567500  -2.33636200
H    7.36942600   3.41919200  -0.24599100
H    5.66889400   2.34870300   2.12407600
H    6.95461800   3.70692500   2.16369400