16

C    1.01133100   0.27010200  -0.05911400
C    2.43946800  -0.14379600   0.11137200
C    3.33618300  -0.91314200  -0.89324200
C    2.97106800  -1.40910500  -2.25729100
N    3.48556400   0.49154000  -0.63829000
C    3.43722100   1.63535600  -1.56209400
O    2.56573600   1.70528200  -2.35642400
H    0.80743400   1.19068900   0.50787600
H    0.37843900  -0.52327700   0.36381600
H    0.74391900   0.43447600  -1.10979100
H    2.75435200  -0.38858000   1.13670600
H    4.06786400  -1.51709400  -0.33628200
H    2.19355900  -0.79863100  -2.73224700
H    2.61539900  -2.44446200  -2.15513100
H    3.85692900  -1.42863000  -2.90951500
H    4.27308700   2.34167200  -1.39898100