15

C    1.12537900   1.36468000   0.76038100
C    2.26957000   1.98304600   0.40786400
C    3.32536200   1.25332700  -0.36694700
O    2.78611900   0.72666400  -1.33529200
C    4.72385300   1.26712300  -0.03847500
C    5.59869100   0.06795100  -0.46765200
C    5.75138100   1.32622800  -1.19776300
H    0.40465800   1.88089500   1.40130500
H    0.90230300   0.33535100   0.46684600
H    2.48362600   3.04088200   0.60160800
H    4.95780600   1.78302700   0.89456100
H    5.07860400  -0.76417200  -0.94855500
H    6.34558200  -0.21640300   0.27634800
H    6.60642000   1.97190800  -0.98692400
H    5.33796600   1.41037700  -2.20579300