16

O    1.01641700   0.03609300   0.19528200
C    2.32173000  -0.14772500   0.16352700
C    2.89944500  -0.67867800  -1.09323000
C    3.30129100   0.65799700  -1.59653100
N    4.52760200   1.07905800  -1.60371900
C    5.89939800   0.80879800  -1.31285900
C    5.42660100   2.18011800  -1.72889700
H    0.72401900   0.46561700   1.01026200
H    2.93592600   0.08649000   1.03797100
H    2.13147100  -1.15625700  -1.71720100
H    3.75200300  -1.35260900  -0.93466900
H    2.53017800   1.35596900  -1.93967100
H    6.43764900   0.19203500  -2.03989100
H    6.15228600   0.63777700  -0.26105200
H    5.34747700   2.96231900  -0.96670600
H    5.63193400   2.52314400  -2.74777100