16

C    0.87487600  -1.50239300   0.54891800
N    1.55103300  -0.23583700   0.61022400
C    0.72436800   0.42849800  -0.36407800
C   -0.19301700   1.55169800   0.20588600
C   -1.46897700   0.80850000   0.51052100
C   -1.45020500  -0.47153600   0.13121100
C   -0.12744900  -0.87153400  -0.46034600
H    1.54829400  -2.29295400   0.16244100
H    0.49669900  -1.83624400   1.53345200
H    2.34290200   0.09292200   1.17530900
H    1.32356900   0.76789600  -1.22762000
H    0.24589100   2.04960100   1.08541600
H   -0.33233400   2.32889100  -0.56104200
H   -2.31791900   1.30647600   0.98280100
H   -2.27993100  -1.17152400   0.23832100
H   -0.17835200  -1.37747000  -1.43313300