9

C    1.10142300  -0.06437300  -0.00108700
C    2.32933800  -0.01897200   0.00035000
C    3.69529200   0.10443100   0.00227300
C    4.51636900   1.38765900   0.00009900
O    5.70583000   1.33269000   0.00221800
N    5.19788000  -1.86061100   0.01020400
N    4.46780600  -1.02682800   0.00668500
H    0.01977500  -0.11073400  -0.00198300
H    3.90237600   2.31145600  -0.00346900