19

C    3.07800800  -1.07986600  -0.73173500
C    2.49197200   0.08411200   0.06182700
C    3.37249200   1.33248400   0.02686700
C    3.47567400   2.08612100  -1.25307600
N    2.60437300   1.96562300  -2.25211600
C    2.81573000   2.56425900   0.64224900
N    3.51621800   3.36517300   1.44295000
H    2.42354300  -1.95897700  -0.66323400
H    4.06441800  -1.36845300  -0.34017300
H    3.20213400  -0.83841300  -1.79846600
H    2.36868300  -0.20085900   1.11743100
H    1.47498800   0.33138200  -0.29008200
H    4.37783200   1.11516900   0.42068800
H    4.31141900   2.77326300  -1.40266600
H    2.64599700   2.57759700  -3.05903000
H    1.88799800   1.24770300  -2.25495200
H    1.77059200   2.82578700   0.45713100
H    4.44131300   3.11370300   1.77437100
H    3.13939400   4.25133100   1.75984900