16

N    0.94718700   0.18456200  -0.24759400
C    2.26216500   0.20929100  -0.22649100
C    2.97328700   0.93262900   0.89954600
O    2.04418100   1.03910600   1.93408200
C    4.08092200  -0.08843400   1.19325900
C    3.32557400  -1.35001100   0.90146400
O    3.83877000  -2.39397700   0.29554400
H    0.42139200  -0.20405400  -1.02367700
H    0.44921300   0.49562300   0.58662500
H    2.79472500   0.01557700  -1.16260600
H    3.35111500   1.91845600   0.57132800
H    2.33467900   1.67541600   2.59571600
H    4.92177400   0.04098300   0.49244300
H    4.47565100  -0.03044500   2.22068800
H    2.46063400  -1.60304700   1.52347300
H    4.69981500  -2.21008500  -0.10646300