10

O    1.01112100  -0.07754000   0.31075900
N    2.23714300  -0.10300800  -0.08954300
C    2.88386600   1.04121900  -0.05695700
C    2.11567200   2.39092600  -0.06637600
O    2.71403900   3.40651300  -0.16652500
C    4.27430200   1.05014200  -0.07129600
C    5.49264500   1.13104700  -0.04607900
H    0.59062400  -0.91418400   0.02579500
H    1.01125400   2.29572200   0.02897300
H    6.57287300   1.19281000  -0.03336100