19

C    0.91743000   0.02219300   0.04775000
C    2.43584200   0.00832200   0.16625500
C    3.12054500   1.17651100   0.89908500
C    4.54167400   0.66604000   1.15088200
C    4.32834200  -0.82673800   1.43029900
C    3.11501400  -1.19825500   0.67856100
C    2.68093200  -2.52474500   0.47122700
H    0.52919400  -0.80886700  -0.55792800
H    0.59750000   0.95618600  -0.43179700
H    0.45614900  -0.02267400   1.04501700
H    2.87095300  -0.00890900  -0.87383700
H    2.58997300   1.35867300   1.84894000
H    3.08188700   2.10702400   0.31899200
H    5.16449300   0.78447700   0.24993400
H    5.05478300   1.17778800   1.97386600
H    5.18403000  -1.50554400   1.29013600
H    4.01042700  -0.97516400   2.49149600
H    1.85748200  -2.74850400  -0.21330000
H    3.16398900  -3.35823200   0.99035000