12

C    0.25988600  -1.38751900   0.04120800
O   -1.06350500  -0.83658100   0.02831900
C   -1.28214500   0.43257800   0.00216700
C   -0.26680100   1.39098900  -0.01689200
C    1.07748400   0.96433100  -0.00786000
C    1.34387900  -0.38262500   0.02011700
H    0.31980500  -2.06923700  -0.82698600
H    0.31875600  -2.03049900   0.93861000
H   -2.34691700   0.68722500  -0.00396400
H   -0.54066800   2.44663700  -0.03861100
H    1.88964600   1.69360800  -0.02295700
H    2.36938800  -0.76213600   0.02810900