17

C    2.48663400  -0.67964200   1.47005400
C    3.30407000  -0.26511400   0.23986700
C    3.21261200   1.19095000  -0.03449400
C    4.27051700   2.02275000  -0.17941600
C    4.11432000   3.43921900  -0.46675800
N    3.11637100   4.16093400   0.00185100
N    4.94403300   4.01702500  -1.34930400
H    2.54774700  -1.76734800   1.60493700
H    1.42456000  -0.41565900   1.35803000
H    2.87036500  -0.20368400   2.38364400
H    2.89754100  -0.78128700  -0.64943800
H    4.35533600  -0.57268500   0.33887300
H    2.19608100   1.59527200  -0.14100300
H    5.29312400   1.63471100  -0.17314900
H    2.49819200   3.79768200   0.72044900
H    2.98630100   5.12100600  -0.31078700
H    5.93296300   3.75104000  -1.27511700