13

C    2.15135000  -0.88369000  -0.11268000
O    3.38489100  -0.17880700  -0.01310900
C    3.37364800   1.15531700  -0.17327300
C    4.68917800   1.78948800  -0.17452600
C    4.84393400   3.12964300  -0.43244400
H    2.38553500  -1.94005000   0.04873300
H    1.71343500  -0.74214500  -1.11335500
H    1.44891600  -0.53318300   0.66020200
H    2.85186900   1.66611500   0.70407500
H    2.71744400   1.50871200  -1.00919200
H    5.55485100   1.16308700   0.07093400
H    3.98710600   3.78446900  -0.62413700
H    5.83998700   3.57889800  -0.46451800