17

C    1.13059600   0.41437200   0.24920100
C    2.52877000  -0.03350700  -0.16290800
N    3.52832500   0.28496800   0.80964200
C    4.85732600   0.75878800   0.48736400
C    4.82375400   2.28986200   0.23507800
C    5.77555100   0.39286100   1.57023900
N    6.48404800   0.11369900   2.43705700
H    0.41913200   0.07942800  -0.51659300
H    1.07357300   1.50892100   0.32038100
H    0.82601700  -0.03082800   1.20743600
H    2.85099200   0.36610900  -1.13677900
H    2.55636400  -1.14415000  -0.25680000
H    3.28059500   0.19628700   1.80393700
H    5.16710800   0.25341600  -0.44466200
H    4.51096600   2.82787000   1.13935600
H    4.14829800   2.52338600  -0.59850300
H    5.84199200   2.60247400  -0.03336800