14

C    0.12199400   0.90367700  -0.27386300
C   -0.92440900  -0.04048400   0.05190600
C    0.45005400  -0.71121000   0.12067400
C    1.13343400  -0.91386700   1.35690500
C    1.54569900  -2.38278100   1.74185000
O    2.42994500  -1.44147100   1.30162100
H    0.42399400   1.08222600  -1.30962400
H    0.48868800   1.61067100   0.47472000
H   -1.53675800  -0.43424500  -0.76544600
H   -1.42703000   0.06625900   1.01825200
H    0.80657300  -1.28098900  -0.74233700
H    0.89721900  -0.28642900   2.22661900
H    1.32142300  -3.21545800   1.06465300
H    1.46638200  -2.55653600   2.82359600