14

C    2.98187700  -1.18081500   0.37518700
C    2.39128800   0.03147700   0.16870000
C    3.06540100   1.27268500   0.09233400
C    2.48725200   2.56997900  -0.12355600
C    3.50460700   3.49267400  -0.12593500
C    4.71142700   2.77418000   0.08765100
N    4.42850700   1.46745500   0.21368300
H    2.37788800  -2.08956400   0.41947200
H    4.06029700  -1.30774300   0.50412600
H    1.30619900   0.08208500   0.04805400
H    1.42238000   2.75218600  -0.25795400
H    3.43101400   4.56926900  -0.26225800
H    5.73457800   3.14470700   0.15200700
H    5.12018600   0.74264800   0.37314900