18

C    1.11970800   0.35229600   0.36121900
O    2.51539600   0.47432700   0.20532400
C    3.00583200   1.74273000   0.42470300
C    4.48973000   1.69345700   0.39775600
C    5.31037200   2.78000600   0.26413700
C    6.80775300   2.66352900   0.28757900
N    6.92569800   2.43928900  -1.12679600
H    0.86282700  -0.69498900   0.16649600
H    0.57690000   0.99404400  -0.35507800
H    0.80584400   0.61486800   1.38731400
H    2.70527600   2.14733100   1.42201600
H    2.63525200   2.48783800  -0.31444200
H    4.91891300   0.69307700   0.54208900
H    4.89244100   3.76776100   0.04057300
H    7.18515900   1.80658300   0.85758700
H    7.32218800   3.58030500   0.59687300
H    6.83230200   1.50323700  -1.51763600
H    6.88925800   3.21459900  -1.78662400