17

C    1.00290100  -0.03710500   0.09163300
C    2.51424300   0.08020800  -0.03176800
N    3.00710700  -0.61317300  -1.25402600
N    2.54102800  -1.76960600  -1.64805700
C    1.66172400  -2.05955200  -2.50741100
C    3.01242800   1.49921700  -0.11813700
C    3.95963600   1.98998100   0.67978800
H    0.69346500   0.49938300   0.99820300
H    0.67159500  -1.07984700   0.19622300
H    0.49211100   0.43057100  -0.76358600
H    3.00443200  -0.43209600   0.81641500
H    3.97960400  -0.42985800  -1.52621700
H    1.40511300  -3.11628200  -2.63823200
H    1.17032400  -1.28798100  -3.11819100
H    2.52785800   2.13518500  -0.86756000
H    4.44451100   1.38022000   1.44873900
H    4.27563200   3.03259400   0.60277700