13

O    0.90856800   0.03272000  -0.04049500
C    2.10295000  -0.02324200  -0.00879500
C    2.91266400   1.24633000  -0.00155700
C    4.30677400   1.37123100   0.03430900
C    4.68455500   2.80974800   0.02802400
C    3.36036700   3.48840300  -0.01512100
C    2.33654000   2.53458800  -0.03164300
H    2.67102900  -0.97859600   0.01810000
H    5.01862100   0.54167200   0.06278800
H    5.32708600   3.07572100  -0.83343300
H    5.28028900   3.09564900   0.91631300
H    3.21783500   4.57167800  -0.03127200
H    1.26297400   2.73150900  -0.06260600