20

C    3.29377900  -1.10208000  -0.12735000
C    2.82783700   0.03412600   0.76628000
O    3.39586400  -0.03814100   2.06427400
C    3.13866600   1.44655000   0.25888500
C    2.43481000   2.52945000   1.07346300
C    4.68939100   1.63055200   0.24933500
N    5.25294500   1.33003200   1.51644600
H    2.86087200  -1.00586700  -1.13273300
H    2.96493700  -2.07168300   0.27594100
H    4.39008900  -1.13276500  -0.22408000
H    1.72726700  -0.01801800   0.87355800
H    3.48436900  -0.95848200   2.34512200
H    2.82303600   1.52552400  -0.79291400
H    2.67799900   2.47108600   2.14484100
H    1.34525900   2.41595100   0.98711500
H    2.68893000   3.53358700   0.70551600
H    4.88423900   2.69549300   0.01930300
H    5.17491700   1.01344400  -0.51554200
H    4.98412600   1.85496000   2.34836600
H    5.97853100   0.62575500   1.63897800