15

O    2.66951200  -0.94764200  -0.70884400
C    2.20756700   0.13170100   0.03992000
C    3.30812800   1.16603400  -0.09977500
C    3.31813900   2.18748600  -1.12496200
C    2.79894900   2.77452000   0.19870900
C    3.61479100   3.46117600   1.07734700
C    4.33865300   4.07359800   1.86163200
H    3.04317300  -1.62961500  -0.13915900
H    2.01925600  -0.10634300   1.09839000
H    1.27037600   0.50396800  -0.40300200
H    4.25389500   0.93784500   0.40360000
H    2.52577100   2.15019100  -1.88009800
H    4.28126700   2.58204300  -1.45862500
H    1.71585400   2.85843200   0.33916800
H    4.96874200   4.61944700   2.54945900