18

C    1.59797500  -0.60003100  -0.91477400
O    2.17266600   0.11547100   0.16187600
C    3.04528600   1.12764400  -0.14459900
C    4.21320700   0.75197700  -1.04481900
C    2.34454100   2.49476300  -0.55639400
N    2.92704800   3.07445900   0.61516400
C    3.44990500   1.85642000   1.16516600
H    0.82707700  -1.24766000  -0.48309700
H    2.33916600  -1.22676900  -1.43424500
H    1.12190200   0.08061500  -1.64384200
H    4.92522500   1.58394500  -1.14167200
H    3.86560300   0.48935300  -2.05318500
H    4.73923700  -0.11354700  -0.61742300
H    1.24185200   2.42838400  -0.46456100
H    2.59256200   3.03589100  -1.48489000
H    3.12889200   4.05298600   0.84714600
H    4.51391400   1.92933400   1.45000400
H    2.87094400   1.51256800   2.04498800