16

C    0.84675700   0.59935500   0.19424500
C    2.22326800   0.12339600   0.41064500
C    3.33646700   0.58733000  -0.27654200
C    4.71371900   0.06020200  -0.07420300
C    4.73318400   1.06014600   1.03813800
C    5.06429400   2.38494700   0.87359900
H    0.20449500  -0.25052500  -0.09603300
H    0.77380100   1.38869600  -0.56400100
H    0.42712100   0.96161600   1.14959100
H    2.37228100  -0.66930100   1.15533700
H    3.20687600   1.39661300  -1.00273900
H    5.39633400   0.27127300  -0.90311200
H    4.77663200  -0.97801400   0.26646500
H    4.45489500   0.70198000   2.03402700
H    5.33102600   2.79135000  -0.10662700
H    5.09285900   3.06270000   1.73020700