11

C    0.96635800   0.00181100  -0.02498100
C    2.42795000   0.08642000  -0.13747900
C    3.17157200   1.18147900   0.20245900
C    4.58034400   1.11900500   0.03965700
O    5.39272800   2.00491800   0.29376400
H    0.70661900  -0.85929000   0.61607100
H    0.54530400  -0.24301600  -1.01628400
H    0.50194100   0.91474100   0.36557900
H    2.94410900  -0.80276400  -0.52418700
H    2.73704600   2.10464700   0.59392900
H    5.07184800   0.19440700  -0.35804700