17

C    0.86902700  -0.03678000  -0.11200100
C    2.40790400  -0.01544100  -0.13664400
C    3.11915200  -1.23825500  -0.57738000
C    4.17958900  -0.92847600  -1.37993000
C    4.25415200   0.53122300  -1.59379300
C    3.11186700   1.10238000  -0.83057000
C    2.77940300   2.42473600  -0.76562700
H    0.46883400   0.88111500   0.33688100
H    0.51638100  -0.88826900   0.48388500
H    0.48020300  -0.13328200  -1.13475300
H    2.72339800   0.11444200   0.93945700
H    2.83461200  -2.24395300  -0.26261700
H    4.87638300  -1.64459300  -1.81809000
H    5.23637200   0.97089500  -1.31567200
H    4.17753900   0.79522000  -2.67447400
H    3.34596900   3.17749900  -1.31993400
H    1.93668600   2.77061800  -0.16187300