16

O    2.91673300  -0.79430700   1.12477500
C    2.14500600  -0.00679200   0.29429900
C    2.85960200   1.26636000  -0.01628300
C    2.24002900   2.26996100  -0.75818900
C    4.20516000   1.42934300   0.45407500
C    5.32067800   1.49891400  -0.69523900
N    4.94031400   2.61550800   0.07484300
H    2.45257100  -1.60672800   1.35164200
H    1.15841200   0.26171000   0.72986800
H    1.91469700  -0.49198500  -0.68075300
H    1.22332500   2.14450400  -1.14075000
H    2.75903600   3.21803800  -0.92542400
H    4.50446400   0.83102500   1.31905400
H    4.94890800   1.44283600  -1.72154600
H    6.24426400   0.95039600  -0.47869800
H    5.62990900   2.86687100   0.78487600