12

C   -1.39706200   0.04882900  -0.41817900
C   -0.49169500  -0.78481100   0.50098200
O   -0.26208700   0.42180400   1.32891100
C   -0.42309100   1.14263100   0.04494100
C    0.94249700   0.68029800  -0.40200800
C    0.89462900  -0.66454900  -0.08381300
H   -1.43567600  -0.20252300  -1.48632100
H   -2.40250900   0.18428100   0.00304700
H   -0.78444000  -1.68090900   1.05726400
H   -0.64592800   2.21038100   0.13655900
H    1.78194100   1.28390500  -0.75224900
H    1.68583200  -1.41607800  -0.11344400