17

C    0.42405600   0.71432300  -0.10518500
O    1.69515500   0.20822300   0.36769700
C    2.68776600   0.92959400   0.66955400
C    3.88770800   0.18595000   1.18047100
O    3.90524300  -1.15073500   0.88480900
C    3.21589700   2.51721700  -0.90076600
C    2.72861800   2.40893200   0.51279100
H   -0.03786100   1.33093200   0.67595600
H   -0.18194300  -0.17400000  -0.30212200
H    0.58279400   1.28235100  -1.02993500
H    3.92396000   0.43174700   2.26627400
H    4.78355800   0.66785400   0.75206500
H    3.36836500  -1.65564200   1.50432500
H    2.51407200   2.62453400  -1.73026000
H    4.28211800   2.43953500  -1.12357300
H    3.45160900   2.83404500   1.22573900
H    1.74674900   2.87857200   0.66080900