18

C    4.04008300  -1.52648100  -0.16087900
C    2.97784100  -0.49946400   0.09481600
C    1.65096000  -0.87613100   0.28500100
C    3.25942200   0.89061900   0.15282600
C    4.52023200   1.43352500  -0.04113500
C    4.82001700   2.88136100  -0.04773200
N    6.18853600   3.14391600   0.26502800
H    4.84688900  -1.45432500   0.58391200
H    4.49055300  -1.38171000  -1.15482900
H    3.63019700  -2.54252600  -0.12048900
H    1.35034100  -1.92688200   0.25665200
H    0.87080500  -0.13200700   0.46803400
H    2.42613500   1.57307700   0.35229600
H    5.38149500   0.77947800  -0.22314400
H    4.05637100   3.42693100   0.55029900
H    4.61194400   3.19867700  -1.09397800
H    6.39699600   3.06969700   1.25638700
H    6.51660800   4.04039900  -0.07859700