15

C    2.19557600  -0.52400800  -1.46925200
C    2.47076200   0.08699500  -0.09372700
C    3.28312400   1.33983800  -0.21343800
C    2.58592700   2.64049800  -0.68604200
C    2.95930000   3.07800600   0.75540100
O    2.74865800   4.15512500   1.27323700
O    3.51634400   1.99880500   1.14049400
H    1.62331900  -1.45249600  -1.34906100
H    3.12808800  -0.77298500  -1.99589000
H    1.60249300   0.14648300  -2.10936900
H    3.04248800  -0.61784100   0.53184400
H    1.53039700   0.30527700   0.43768300
H    4.27615100   1.19088600  -0.65821600
H    1.49487600   2.60393900  -0.82071300
H    3.07628300   3.25565100  -1.45302900