13

C    0.95519600  -0.00501400  -0.06946000
C    2.42450000  -0.03210500   0.07927000
N    3.20663200   1.03967000   0.00378300
C    4.51805700   1.08439300   0.10295700
C    5.24298700  -0.09057500   0.31272900
C    4.44569400  -1.23401500   0.39592100
N    3.13874800  -1.13494400   0.27857500
H    0.55827200   0.96107800   0.26559800
H    0.50233500  -0.83168200   0.49150300
H    0.70396600  -0.13149200  -1.13540800
H    4.99522000   2.06810400   0.01544400
H    6.32927900  -0.11289600   0.40434800
H    4.86087000  -2.23599200   0.55933000