13

C    0.73222200   0.44357800   0.24590600
C    2.14241800   0.18934800   0.02259500
O    2.97652400   0.37769900   0.96266600
C    4.29472500  -0.12623100   0.85766700
S    4.07954100  -2.01439400   0.97220200
O    2.81418500  -2.18121500   0.23104300
O    4.21649400  -2.38019200   2.38306900
H    0.22502700  -0.53239000   0.10902700
H    0.33861700   1.09147700  -0.55469200
H    0.52647900   0.84235500   1.24576100
H    2.51999700  -0.11089900  -0.96546100
H    4.75441900   0.10679700  -0.11382300
H    4.87558100   0.22879900   1.71552900