19

C    2.76864000  -0.74793300  -0.84140000
C    2.62415000   0.05491800   0.45041700
C    3.41567500   1.35552100   0.46164400
C    3.23854400   2.16692900   1.76682700
O    3.96183500   3.34589100   1.67237500
C    4.95492000   1.13539700   0.34286100
O    5.66418700   2.30750200   0.52241000
H    2.09146700  -1.61176700  -0.82695800
H    3.78816800  -1.14198600  -0.97284400
H    2.51408000  -0.14076600  -1.72321300
H    2.91501000  -0.56128600   1.31770100
H    1.56158300   0.30988800   0.59372900
H    3.09679200   1.99517600  -0.37960600
H    3.49791100   1.57738700   2.65874300
H    2.16344900   2.43688700   1.79346900
H    4.55885900   3.47718700   2.42583300
H    5.11962500   0.73849600  -0.67934100
H    5.31268500   0.41240200   1.08804100
H    5.50384500   2.93802100  -0.19974000