15

C    1.03171000  -0.16197500   0.00682100
C    2.54341200  -0.00886300  -0.00394500
C    3.03100800   1.38983200   0.28835500
O    2.31269000   2.29230800   0.63837100
C    4.53128100   1.67213100   0.14147200
C    4.67694600   3.12918400   0.56662700
O    5.67584000   3.74075000   0.63002600
H    0.77959700  -1.21022000  -0.19927700
H    0.56034100   0.46176400  -0.76431600
H    0.60841800   0.10949300   0.98278700
H    2.99772300  -0.30982300  -0.96358500
H    3.03328400  -0.64224000   0.75954300
H    4.87306400   1.54216700  -0.90084900
H    5.15211500   1.01071400   0.77035000
H    3.62049300   3.54512300   0.82192900