20

C    3.14234900  -0.58863600  -1.15713800
C    2.51007400  -0.08479600   0.12504800
C    3.11649800   1.37113700   0.52655500
N    2.39339500   1.81304200   1.63850000
C    4.59950800   1.32803400   0.76712800
C    5.54479800   1.66543400  -0.35423300
C    5.39124100   2.61651900   0.78854100
H    2.67041800  -1.55327800  -1.40046100
H    4.22092300  -0.75871200  -1.05092300
H    2.96750400   0.09243600  -2.00181800
H    2.71372700  -0.74996800   0.97664400
H    1.42119200   0.02647200   0.01982800
H    2.82815400   1.99465100  -0.34263400
H    2.80131100   1.78671300   2.57694500
H    1.40934800   2.08154700   1.56778100
H    4.91396200   0.53410700   1.45426000
H    5.11519200   1.95504700  -1.31731000
H    6.46009600   1.07600500  -0.43274100
H    6.19870900   2.69718400   1.51879600
H    4.85732300   3.55269100   0.60310000