11

C    0.90805100  -0.20643600  -0.08099100
C    2.29589400   0.16413400   0.24711900
O    3.16969200  -0.51690100   0.74804200
C    2.93887200   1.44411500   0.04226400
C    3.73410200   2.39478700  -0.00743000
C    4.54935500   3.46032700  -0.08761600
C    5.29814500   4.42792600  -0.15798200
H    0.22378700   0.46860400   0.45809200
H    0.71751700  -1.25085500   0.19376200
H    0.74551600  -0.05245300  -1.16006600
H    5.96013900   5.28188700  -0.21963300