16

N    1.28505700   0.17305100   0.19641800
C    2.65328900  -0.11362600  -0.03713200
C    2.87513600  -0.89583000  -1.24047800
C    3.07332400  -1.54112700  -2.24095100
C    3.32155200   1.29891600  -0.07318300
C    3.76794300   1.98288300   1.18676100
C    4.79575400   1.35262200   0.30360200
H    0.98885600   0.55955800   1.09540800
H    0.60680500   0.17771000  -0.57063600
H    3.06167700  -0.62424200   0.85606000
H    3.25271200  -2.12179400  -3.13120700
H    2.97653500   1.90588800  -0.91412500
H    3.57349600   1.48774900   2.14336100
H    3.68489900   3.07111500   1.21682600
H    5.41508200   1.97769400  -0.34368000
H    5.27175400   0.42735000   0.63648700