19

C    1.41851400   0.15547700  -1.85905600
C    0.85391100   0.45087800  -0.47194300
C    1.78588500   1.31770800   0.35748900
C    1.98142800   2.73879900  -0.12707700
O    1.13461100   1.40288200   1.70226600
C    1.72533300   1.51850400   2.81532900
C    3.12006200   1.60329000   3.02182500
H    0.75556300  -0.54372600  -2.38500400
H    2.41377200  -0.31147200  -1.80391100
H    1.49466000   1.06094500  -2.47761700
H    0.68843200  -0.49266500   0.07064400
H   -0.12215200   0.95522300  -0.54854700
H    2.74745700   0.80319900   0.51008400
H    1.01616700   3.25254200  -0.23806500
H    2.47151800   2.70848000  -1.10968500
H    2.62490700   3.32073400   0.54877100
H    1.03868900   1.55997000   3.67116400
H    3.84523600   1.57701700   2.20544300
H    3.48825600   1.70885600   4.04507800