17

C    1.00658700  -0.22470900  -0.26400100
C    2.44631600  -0.23249900   0.26205300
C    2.58775400  -0.96093000   1.58886400
O    3.31733300  -0.87787100  -0.65589800
C    2.94381600   1.23794100   0.38247900
C    4.46525000   1.12406400   0.39456900
O    5.26127400   1.83672900   0.87863500
H    0.93623500   0.25692400  -1.25170500
H    0.35254800   0.31990000   0.42999100
H    0.64536000  -1.25910500  -0.34234600
H    1.97094900  -0.48454100   2.36288100
H    3.63441200  -0.97057200   1.93413000
H    2.26847500  -2.00523500   1.47514900
H    3.03915800  -0.73530500  -1.57377800
H    2.57256700   1.79717000   1.25298300
H    2.73572600   1.82358100  -0.53362100
H    4.70952300   0.15206700  -0.21114800