17

C    0.86005000   0.12954100  -0.12776500
C    2.33515500  -0.16489500  -0.02143200
C    3.06635700  -0.93763500  -1.08869600
C    3.31290800   0.54536700  -0.90363300
N    4.57539800   0.97058000  -0.34513200
C    5.71924100   0.81408600  -0.95628100
N    5.84498300   0.32122300  -2.17623800
H    0.58811500   1.00318000   0.48124800
H    0.27605500  -0.72980500   0.22914900
H    0.56541200   0.33028300  -1.16821800
H    2.69805900  -0.36789800   0.99329800
H    2.51983900  -1.23878200  -1.98615900
H    3.83190300  -1.64311100  -0.75269900
H    2.93142600   1.23647700  -1.66318000
H    4.57049400   1.50195800   0.52663600
H    6.62954200   1.21385900  -0.48284400
H    5.43392300  -0.58271000  -2.44491100