13

O    0.92142100   0.01713100  -0.36119600
C    2.13747700  -0.05340200  -0.15626500
C    2.81349500   1.27393100   0.24059800
C    4.26306200   1.20923500  -0.19051300
O    4.90584100   0.00483600   0.25625100
C    4.25606000  -1.10556100   0.16521500
C    2.91450300  -1.22492400  -0.15036100
H    2.30112700   2.12489100  -0.22754800
H    2.68462900   1.35037500   1.33384800
H    4.83381700   2.03780000   0.24483900
H    4.36447400   1.23764100  -1.28715000
H    4.87474400  -1.98737100   0.36541700
H    2.45035300  -2.20105300  -0.28495600