17

C    2.12245200   2.82479300  -0.94223300
O    2.62916600   1.49143200  -0.88193300
C    3.16204200   1.05546900   0.23151000
C    5.05991700   1.21914400   0.14171300
O    5.42094900   0.36112300  -0.80346100
C    5.33243800   2.64541600  -0.01071900
C    5.44920200   3.47255900   1.04429200
H    1.61808100   2.92329000  -1.90830300
H    2.95647100   3.54125300  -0.87548800
H    1.41300000   2.99618800  -0.12020400
H    3.17081200  -0.03953900   0.29075200
H    2.92970500   1.60726600   1.15504200
H    5.21224600   0.79081500   1.14369000
H    5.53749000   0.77851800  -1.66898000
H    5.46609100   3.02715400  -1.03011200
H    5.32599000   3.11942500   2.07308900
H    5.69422400   4.52825100   0.90760500