15

C    0.92317200  -0.02188200  -0.02706300
C    2.41777400   0.05097800  -0.20196800
C    3.09152000  -0.69748400   1.37642400
C    3.05060800  -0.77446100  -1.29190200
C    3.01047700   1.32210900   0.03853700
N    3.51367400   2.35222900   0.27183800
H    0.47797900   0.46509700  -0.91604600
H    0.56393000   0.51986800   0.85754200
H    0.57676100  -1.06366700  -0.01085900
H    2.65721800  -0.10227300   2.18515000
H    4.17986100  -0.63962400   1.28103200
H    2.65458300  -1.69134400   1.23101900
H    2.72674200  -0.32934700  -2.25242900
H    2.68658100  -1.81003000  -1.26623900
H    4.14791600  -0.74881900  -1.27263500