17

C    2.33971700   0.11370400  -0.45334000
O    3.55771700   0.79982500  -0.17701700
C    3.80844900   1.91631800  -0.85166800
C    5.19633000   2.44809000  -0.66546000
C    5.24894800   3.61999600   0.25968300
C    6.48073600   4.35175500   0.57742400
O    4.16687700   4.01652400   0.77037400
H    2.34250800  -0.79106500   0.16243100
H    2.29119800  -0.16004000  -1.51806200
H    1.47773500   0.74307000  -0.18626200
H    3.43243000   3.42741500   0.41971300
H    3.25238700   2.10605400  -1.77908500
H    5.67770600   2.75630800  -1.61189300
H    5.86166100   1.67278200  -0.23985000
H    7.35796100   3.69339500   0.53578800
H    6.40087500   4.87021400   1.54129600
H    6.60686700   5.11818000  -0.21054300