14

C    1.06054700  -0.00519100  -0.12702200
N    2.46074400   0.18728500   0.09573400
C    3.33633100  -0.90780500   0.05216200
C    3.42272200  -1.54077000  -1.40995300
O    2.56019700  -1.44855600  -2.21039100
C    3.02399600   1.51248900   0.10945200
O    4.20214600   1.67028900   0.11688400
H    0.50650300   0.92887600   0.02666000
H    0.66912200  -0.80551900   0.51894700
H    0.93577800  -0.34634500  -1.18285600
H    2.96914800  -1.75314600   0.66126400
H    4.34996700  -0.60924200   0.35274600
H    4.37052900  -2.10485300  -1.56750100
H    2.25337700   2.30771800   0.11358600