14

C    0.68661700   0.09559700   0.03851600
C    2.14453600  -0.08431200   0.10062900
C    3.06292600   0.95902300  -0.00728700
N    4.37752600   0.77093300   0.05174100
C    5.39992600   1.76998400  -0.04787500
N    5.24948100   3.00522000  -0.21228200
H    0.27347900  -0.52280800  -0.77878800
H    0.37850200   1.13918300  -0.10006900
H    0.22564700  -0.30666100   0.95861600
H    2.53136300  -1.10198300   0.24015200
H    2.71381000   1.98679700  -0.14683800
H    4.71757200  -0.18398300   0.18246700
H    6.40131000   1.32947600   0.03832000
H    4.29299800   3.35933900  -0.28646300