19

C    0.90868200   0.10858800  -0.27221200
C    2.37551800   0.30703100   0.07156500
C    2.70605900   0.03688900   1.52331000
O    3.23454400  -0.42564500  -0.87429600
C    3.28776800   1.04519100  -0.83502100
C    2.81673200   1.70185900  -2.11456200
C    4.65371100   1.52013700  -0.36793400
H    0.72239700  -0.00848200  -1.34494900
H    0.37584500   1.00468600   0.08287000
H    0.51708100  -0.77001700   0.25521900
H    3.76223200   0.18467500   1.76713400
H    2.40890800  -0.98556300   1.79204700
H    2.10264200   0.73762200   2.11946600
H    1.82937300   1.36392000  -2.44278200
H    3.54710000   1.52853200  -2.91612600
H    2.77440200   2.78332300  -1.91681800
H    5.12875100   0.84598500   0.35248700
H    4.50137000   2.49953700   0.11219200
H    5.31991400   1.64685700  -1.23026900