14

O    1.10951900   1.50944100  -0.94659300
N    2.41810100   1.42909300  -1.07289300
C    2.97245000   0.80403500  -0.04532800
C    4.35748800   0.62343900  -0.02833200
C    5.26307600   1.05792900  -1.15513900
C    5.40693600   2.29360100  -0.39990000
O    6.43331200   2.46747300   0.35915900
H    0.78536600   1.95925100  -1.74217100
H    2.34620300   0.42752000   0.77326200
H    4.81564400   0.12617500   0.82991000
H    4.73171400   1.17900300  -2.10590400
H    6.18635900   0.47209100  -1.22617600
H    4.64943100   3.08452600  -0.48134500
H    6.38404000   3.26806500   0.90595300