19

C    0.91663400   0.06667300   0.26212900
C    2.38992700   0.20305300   0.28192400
C    3.47904300  -0.64152700  -1.45716400
N    2.81248500  -1.19148300  -2.42861800
C    3.18404400   0.69461300  -0.88691400
C    4.50258000   1.41468900  -0.58494600
N    5.34757600   1.30155700  -1.75845300
H    0.45459000   0.95501200   0.73491200
H    0.57631200  -0.80390800   0.84142400
H    0.50784800   0.00387800  -0.75784300
H    2.94142800  -0.04713400   1.19471900
H    4.25950100  -1.24734000  -0.98537800
H    2.11423600  -0.67243100  -2.95639700
H    2.98393400  -2.15285500  -2.71390600
H    2.55612000   1.27921100  -1.58115400
H    4.99647800   0.90146800   0.25578300
H    4.28554300   2.44219400  -0.24204500
H    6.32783100   1.45258200  -1.53322600
H    5.10190900   1.98827600  -2.46943100