17

C    1.09657000  -0.06581800   0.86787300
C    2.44269600   0.35646900   0.44976300
C    2.80415400   1.68305300   0.21435800
N    4.02489800   2.04219400  -0.15911200
C    4.50730300   3.38367100  -0.43208200
C    5.96957700   3.41171400  -0.74723100
N    3.78283200   4.41334400  -0.40947500
H    0.69433400  -0.79329200   0.14027300
H    0.39169700   0.76742400   0.97898000
H    1.16236300  -0.62116500   1.82062400
H    3.20667200  -0.41999900   0.31591400
H    2.06701100   2.48223900   0.33964100
H    4.72177600   1.30272200  -0.26693800
H    6.56229400   3.02459200   0.09621300
H    6.26349800   4.44845500  -0.94150400
H    6.19191300   2.80597200  -1.63976100
H    2.79369800   4.28510300  -0.19147500