13

O    1.17940100   0.01287100  -0.40785300
N    2.37672700  -0.03472700   0.11937800
C    2.91020600   1.21035300   0.17336200
N    4.12422700   1.35866600   0.68046100
C    4.52284400   2.74759100   0.65461800
C    3.33781300   3.41168900   0.04429700
C    2.38506200   2.49914900  -0.23873700
H    0.84833400  -0.90213400  -0.42035200
H    4.68662800   0.58759700   1.03453000
H    5.44154300   2.88338100   0.05604100
H    4.73938700   3.11542900   1.67365800
H    3.28382700   4.48621200  -0.13271900
H    1.40615600   2.65297300  -0.68616500