18

C    0.96100500  -0.03907000   0.13742700
C    2.45298300   0.04885200   0.00848400
C    3.14011800   1.18880500  -0.14141700
C    4.63578000   1.23220400  -0.26898000
C    5.27740600   0.01852100   0.40543700
N    4.59270100  -1.18848800   0.04218100
C    3.17186900  -1.27171100  -0.01615600
H    0.52706800  -0.66588200  -0.65770300
H    0.50454600   0.95629200   0.07164400
H    0.67081800  -0.48341000   1.10273600
H    2.59753900   2.13574300  -0.20302900
H    4.93607500   1.29047800  -1.32938200
H    5.04478400   2.13066400   0.21439600
H    6.34810100  -0.09690300   0.19419100
H    5.15880800   0.11382200   1.50840400
H    5.13032400  -2.04555300  -0.11167900
H    2.85472300  -1.92252900   0.83319100
H    2.90446000  -1.87340500  -0.90934600