15

C    0.80851000  -0.40617900   0.08984800
C    2.31744500  -0.18524400  -0.08068300
O    2.79950100  -0.50144600  -1.34109800
C    2.65859100   1.23949100   0.18418300
N    3.26855100   1.93183500  -0.69275500
N    3.66366400   3.15874400  -0.67265600
C    4.28084200   3.82768600  -1.55252000
H    0.46225700  -0.11682100   1.09220900
H    0.59034600  -1.47524700  -0.04081200
H    0.25138500   0.15983400  -0.66946800
H    2.84408700  -0.74099200   0.72860900
H    2.60875800  -1.42297000  -1.54497500
H    2.38585200   1.70346300   1.14446100
H    4.51877200   4.87028000  -1.31918600
H    4.56856500   3.38111000  -2.51463600