13

O    1.52627300   0.26251800   1.19598100
C    2.31753600  -0.02278500   0.37103100
C    2.99428300  -1.33756200   0.00170500
C    3.93275900  -0.96763000  -1.12428100
C    5.13696000  -0.07685000  -0.94974800
N    3.80042800   0.45597900  -1.34272100
N    2.95118500   0.97484300  -0.49445700
H    2.23284900  -2.06525500  -0.31512800
H    3.49336200  -1.75367700   0.89063800
H    3.92829500  -1.56761800  -2.04161800
H    5.47098200   0.23065500   0.04690200
H    5.88174300  -0.06186100  -1.74859600
H    2.93422700   1.98455400  -0.32463600