15

N    0.40014800   0.34811400  -0.13246000
C    1.49287400  -0.33534300   0.15701200
C    2.18779700  -1.21426500  -0.80960800
C    3.19684300  -0.14982000  -0.99272500
O    4.33322000  -0.27302200  -0.35417700
N    5.12724400   0.90052500  -0.44456700
C    6.25119000   0.70365700   0.10308500
H    0.02193900   1.03250600   0.51542500
H   -0.10224000   0.21558700  -1.00556700
H    1.90311800  -0.22662900   1.16459300
H    1.60899800  -1.44227800  -1.71468100
H    2.60785500  -2.12268900  -0.35986700
H    3.05764200   0.72608800  -1.63359300
H    6.94149600   1.55111000   0.08650200
H    6.53938000  -0.24689000   0.56866000