21

C    0.92344200   0.02512900   0.14810200
C    2.40930100  -0.10454500   0.07205500
C    3.01847500  -1.31260000  -0.57702400
C    2.66626800  -1.54465700  -2.03858800
C    3.21209900  -0.37821900  -2.88874400
C    2.68368600   0.93908400  -2.34683600
C    3.07280700   1.24009300  -0.94741400
H    0.60961900   1.01944200   0.49444100
H    0.57870800  -0.68953200   0.91961800
H    0.40568100  -0.22523800  -0.78651700
H    2.91056600   0.20729600   1.00213000
H    2.61087200  -2.15499400   0.02999900
H    4.10780700  -1.32328200  -0.42430400
H    3.11249200  -2.48561000  -2.39095800
H    1.57803900  -1.64351400  -2.17048200
H    4.31337300  -0.38203500  -2.86293300
H    2.91280600  -0.51622300  -3.93731600
H    3.17064800   1.77825800  -2.90534700
H    1.60250200   1.06072200  -2.50838400
H    4.14686400   1.17775000  -0.72904000
H    2.59195600   2.10027700  -0.46424000