14

C    0.97395200  -0.05773100  -0.41423000
N    2.34330700   0.20742200  -0.12388600
C    2.91175000   1.53370100  -0.01622700
C    2.51640300   2.17687000   1.34250100
C    4.36427500   1.45367900  -0.19334500
N    5.50863700   1.37590800  -0.31802000
H    0.54393300  -0.68566200   0.38769000
H    0.92210900  -0.66256800  -1.34119000
H    0.40899200   0.87343300  -0.53583300
H    2.96297300  -0.59256700   0.05909800
H    2.47361100   2.14095000  -0.82973700
H    2.92344700   1.59588600   2.18010900
H    1.42448400   2.25429700   1.42646400
H    2.94733500   3.18703600   1.36198500