14

O    0.89062300  -0.38941600   0.23030600
C    2.22407800  -0.10535600   0.29118200
C    2.94634400  -0.38521200  -0.98022200
C    2.29105200  -0.44764900  -2.19656000
C    2.58269000   1.31785300  -0.11040800
C    3.76937200   1.94715500   0.17543900
H    0.46137800  -0.21056900   1.07485300
H    2.76120900  -0.46470000   1.18087100
H    4.02031600  -0.57744200  -0.92264700
H    1.21498600  -0.26446700  -2.26145300
H    2.83378200  -0.71916800  -3.10527900
H    1.78541400   1.84584300  -0.64421400
H    4.59447500   1.42757800   0.67226600
H    3.91036800   3.00279600  -0.07133000