15

C    1.06485000   0.02214600   0.64288500
C    2.41771300   0.06526800   0.01494000
C    2.64757100   0.67303600  -1.31679100
O    3.99247300   1.05250700  -1.53359000
C    4.72958500  -0.01839400  -1.67408100
C    3.98839300  -1.19449100  -1.59791300
C    2.62776300  -0.82120300  -1.36890500
H    0.96063300   0.89493900   1.30762500
H    0.95356800  -0.87761900   1.26454600
H    0.25460700   0.05082500  -0.09805600
H    3.28309700   0.03354300   0.68585700
H    1.92256000   1.33792000  -1.79528600
H    5.80039200   0.13527900  -1.81906300
H    4.38298500  -2.20267700  -1.72078900
H    1.76758300  -1.44341900  -1.62122200