23

C    2.20570000  -0.49459200  -1.13843000
C    3.42489700   0.23007900  -0.57552000
C    3.09267100   1.75460100  -0.37469300
C    4.30251300   2.36117000   0.20863700
C    4.08039500   4.23188700   0.36048200
C    2.87577700   4.46353300   1.20229800
C    5.40312900   4.68890900   0.87268000
H    2.45386400  -1.55714700  -1.27660600
H    1.90683800  -0.08601100  -2.11417800
H    1.34638500  -0.43390300  -0.45561300
H    4.28198000   0.13262300  -1.25848900
H    3.72137300  -0.20803600   0.38935000
H    2.22096900   1.83404100   0.28845200
H    2.84402300   2.17730200  -1.35974600
H    5.19957300   2.36087700  -0.42258800
H    4.51380500   2.14646900   1.26475700
H    3.92673700   4.38746000  -0.71804700
H    2.99429500   4.08788500   2.22945400
H    1.95005600   4.08238500   0.75597100
H    2.76622200   5.56370900   1.28050000
H    5.57764300   4.41129200   1.92160000
H    5.36997700   5.79683600   0.82997300
H    6.24845500   4.37830100   0.24551400