15

O    1.01054200   0.17661600  -0.51400800
C    2.29678300  -0.24850300  -0.31141300
C    3.25806900   1.00724000  -0.13065200
C    4.67022100   0.58799900  -0.06529000
C    5.40435100   0.59909100   1.12788600
C    5.30024000   0.10155700  -1.21860600
C    5.83234100  -0.32740200  -2.23229400
H    0.51046500   0.18761100   0.30895800
H    2.64144100  -0.78267300  -1.21249400
H    2.41154100  -0.91555700   0.55937000
H    2.96350400   1.55463700   0.77495700
H    3.07706000   1.63315800  -1.01694400
H    4.93390500   0.91704800   2.06306700
H    6.45917200   0.31124200   1.14457300
H    6.30776300  -0.70508700  -3.12652800