19

C    1.37751700   0.44448600  -0.27805300
N    2.27786000   0.54797000   0.84151500
C    3.16853100   1.58823100   0.99665300
C    4.50035400   1.43782500  -0.04264500
N    5.35037200   2.49376100   0.16956700
C    6.76227800   2.65763700   0.31457200
C    5.95851500   3.49465700  -0.64852000
H    0.51988000  -0.18590500  -0.00912300
H    1.87221900  -0.01151900  -1.15687800
H    1.01332200   1.44248300  -0.55757400
H    2.44493900  -0.30045200   1.37658500
H    3.60126100   1.61749600   2.00345600
H    2.73021900   2.55560200   0.71651000
H    4.04937300   1.43533400  -1.04696300
H    4.95178400   0.46939200   0.21362100
H    7.39826400   1.85814700  -0.08199700
H    7.11130200   3.12173600   1.24299800
H    5.75255700   4.53777200  -0.38613200
H    6.03011400   3.28294300  -1.72149400