11

C    0.94005700   0.00007600  -0.00561800
C    2.42267100   0.00446500  -0.00127100
N    3.18173300  -1.11722400   0.00034700
O    2.44955900  -2.17885400  -0.00218200
C    3.18401800   1.16880200   0.00052700
C    3.83290500   2.20739900   0.00206800
H    0.53989500   1.01884900  -0.00084500
H    0.56949800  -0.55395600   0.87304300
H    0.57568800  -0.54216200  -0.89437100
H    3.05602100  -2.94555500  -0.00022700
H    4.41269700   3.12088000   0.00370900