17

N    0.96438200   0.10871900   0.18945500
C    2.29219300   0.11692600   0.27759800
C    3.38868900  -0.87929800  -1.15504100
N    2.74148800  -1.50384000  -2.13615800
C    3.18582200   0.55412400  -0.83032700
C    4.39082900   1.35372800  -0.41138600
C    5.65383500   0.99946800  -0.63597900
H    0.47264100   0.55110500  -0.57905600
H    0.39518900  -0.29213000   0.92653600
H    2.73896000  -0.20623100   1.22150100
H    4.09521300  -1.46674100  -0.56362900
H    2.21206000  -0.99929800  -2.83829200
H    2.81467400  -2.50820800  -2.25275900
H    2.61369100   1.07494100  -1.61817300
H    4.15982000   2.29379800   0.09894800
H    5.92393700   0.07534100  -1.15568800
H    6.47799600   1.63913600  -0.31437500