18

C    0.99076500  -0.07622900   0.24218000
C    2.45531300  -0.04890400   0.02743000
C    3.15903900  -1.34267300  -0.12328400
C    3.16799300   1.18849800  -0.03250300
C    2.44915800   2.47885000  -0.13284700
C    4.64770900   1.21917700   0.00395700
H    0.60313600   0.78665900   0.79779700
H    0.68044400  -1.01059400   0.72978700
H    0.50514700  -0.07378700  -0.75523400
H    2.48772400  -2.11274500  -0.52753100
H    3.44786400  -1.68788000   0.89065500
H    4.07525900  -1.28701400  -0.72412200
H    1.46743300   2.40834100  -0.61742200
H    3.06574900   3.23638100  -0.63589200
H    2.28377700   2.85224900   0.89858600
H    5.10050800   0.37147800   0.53305900
H    5.01289500   2.16623400   0.42445000
H    5.01017800   1.18784400  -1.04402500