20

C    0.99868000   0.40296100   0.27724600
C    2.49322900   0.10932900   0.24953100
C    3.31778000   1.32682700  -0.23066700
C    4.78929900   1.08379600  -0.22873200
C    5.51155000   0.84516200  -1.35914100
C    5.52182800   1.02131400   1.06638300
N    4.88263200   1.43351700   2.22915500
H    0.43629900  -0.48288800   0.60224500
H    0.63212700   0.68500000  -0.72064700
H    0.75970900   1.22587300   0.96799400
H    2.70376500  -0.73547500  -0.42473800
H    2.82647400  -0.22024500   1.24994200
H    3.09762100   2.19971200   0.41423200
H    2.99441300   1.59743800  -1.24593900
H    5.04603000   0.92043500  -2.34485300
H    6.57548400   0.59255400  -1.32586400
H    6.53827900   1.45535300   1.00310300
H    5.75734800  -0.08796100   1.14383100
H    3.87078600   1.41315900   2.32348000
H    5.41713000   1.58906400   3.07932600