10

O    3.44927600   0.82822200  -1.97594400
C    2.83573300   0.22401000  -1.04982900
O    2.96795800   0.42058600   0.20098100
C    3.79163700   1.31996800   0.85109300
C    4.63367200   2.18040800   0.18328500
C    5.41528000   2.98516200  -0.31714200
H    2.11402600  -0.55002300  -1.33644600
H    4.08770900   1.51580200  -1.66999800
H    3.68099800   1.24930300   1.93272600
H    6.10225700   3.69198900  -0.76024600