17

C    1.03254500   0.02638600   0.07192700
C    2.47139500  -0.00750900   0.03405100
C    3.70391100  -0.05750400  -0.00688400
C    5.12096900  -0.05869800  -0.04496900
C    5.63490600   1.49906300  -0.20384900
C    7.10076600   1.50356500  -0.11798500
C    7.77772400   1.96975900   0.95903500
H    0.69832100   1.06429700  -0.11011800
H    0.64578200  -0.29712100   1.04844800
H    0.60993900  -0.59317200  -0.73461500
H    5.51214900  -0.59942200  -0.91958700
H    5.55009500  -0.45941300   0.88366500
H    5.16362700   2.09353100   0.58933200
H    5.26816900   1.81940200  -1.18841300
H    7.65742900   1.10303500  -0.97255800
H    7.25762400   2.33104300   1.85172300
H    8.86910900   2.02655400   0.95774700