12

C    2.69755900  -1.10391300   0.40776100
C    2.15063200   0.13351100   0.15030700
C    2.95698400   1.28738100   0.07987900
C    2.54028900   2.62420200  -0.17581300
O    3.60366100   3.38065800  -0.15307300
C    4.66469200   2.53538400   0.11139800
N    4.32467100   1.31122000   0.25253000
H    2.06671400  -1.99435900   0.46100500
H    3.77520000  -1.21237900   0.56302800
H    1.07400600   0.24337400  -0.00504100
H    1.56974200   3.08225300  -0.37010200
H    5.64930700   3.00000300   0.16808100