15

O    3.27172200  -0.67511900   0.51891500
C    2.17322800   0.09590600   0.17198500
C    2.62121500   1.49325400  -0.12165600
C    1.69000600   2.48734100  -0.38796000
C    4.04271000   1.79667400  -0.10270200
C    4.53898000   1.87135000   1.43419600
O    4.82628400   2.90605300   1.91042700
H    3.02757700  -1.60206900   0.61421900
H    1.40426400   0.13291900   0.97377600
H    1.64338600  -0.27131100  -0.73370400
H    0.62296900   2.25716500  -0.46785800
H    1.99972400   3.52468500  -0.54097100
H    4.30383400   2.75989100  -0.55485100
H    4.64478100   0.95505300  -0.48318800
H    4.58256400   0.87740100   1.92996000