17

O    1.98035400   0.28502800   1.44556600
C    2.06362300   0.35203800   0.05484400
C    3.21705000   1.23674600  -0.24465600
C    3.26408100   2.38087600  -1.16947000
C    2.79960400   2.96860600   0.11638700
C    3.62733600   3.51320700   1.21696800
O    3.06753700   3.21388900   2.44651600
H    1.43485600  -0.45897600   1.72504900
H    1.13334700   0.70714100  -0.42632500
H    2.31749900  -0.62405400  -0.41676800
H    4.13460900   0.98534300   0.30032900
H    2.49885500   2.39618700  -1.95506000
H    4.27434900   2.67232900  -1.48032700
H    1.71839600   3.03358600   0.28641500
H    3.62085300   4.61739800   1.09413400
H    4.69123000   3.21540100   1.11696800
H    2.92658100   2.26012100   2.52622700