15

C    2.41875200  -0.72788500   1.40358400
C    2.40390200  -0.14190300  -0.01860600
C    2.86043800   1.27834700  -0.03773800
N    2.01921800   2.24751400  -0.28206000
C    4.23953500   1.58443700   0.24602500
C    4.69753400   2.90354200   0.28649100
N    5.01520000   4.02595300   0.30487500
H    2.07306600  -1.76876500   1.36082300
H    1.74844000  -0.17105100   2.07267300
H    3.42771600  -0.72968200   1.84036400
H    1.39803800  -0.21272600  -0.45729300
H    3.08386300  -0.71687700  -0.66843200
H    1.04049900   2.05096000  -0.48673400
H    2.30384700   3.22930600  -0.28188400
H    4.94349600   0.76785600   0.42874000