12

C    2.13867300   0.65272800   0.97892600
C    2.34353000  -0.02594000  -0.43239300
C    2.97806600   1.27309700  -0.87629500
N    3.54068100   1.94462000  -1.81370200
S    3.89020300   3.47669000  -1.10983000
C    3.27570700   3.19575800   0.44095600
C    2.78478000   1.89303200   0.43092900
H    2.68653800   0.20099600   1.82255300
H    1.09487300   0.80067500   1.30236400
H    1.42393100  -0.28520700  -0.97698800
H    3.02497700  -0.88881400  -0.45491900
H    3.30639800   3.95491900   1.22629000