16

N    0.69372100   0.74552800   1.06115900
C    1.64730500   0.16836400   0.24502700
C    2.97815400   1.08339800   0.10421800
C    3.63881600   1.30206700   1.48094600
O    4.86426900   1.89863800   1.34045800
C    3.67697800   1.08654600  -1.18119400
O    2.85064200   2.16514200  -0.70581500
H    0.55063200   0.44890300   2.02444000
H    0.11139200   1.51108600   0.72440500
H    1.29510900   0.09855600  -0.79639700
H    1.98261600  -0.80394800   0.62913000
H    3.78502600   0.31975400   1.95519800
H    2.91801300   1.89031000   2.08402000
H    4.76250700   2.83908800   1.14669100
H    3.26328400   0.52782300  -2.02705300
H    4.74632800   1.31284900  -1.20570700