13

C    0.96173400   0.01784000  -0.16807200
C    2.16411300   0.00644100  -0.07462300
C    3.62007600   0.00414000   0.05364600
C    4.24068800  -1.27286600   0.66099500
N    5.01183900  -0.71302400   1.76156400
N    4.90457700   0.56674000   1.95392400
C    4.10700600   1.04740900   1.01796400
H   -0.11166400   0.02504400  -0.26156900
H    4.07107200   0.22193000  -0.93609600
H    4.90899200  -1.83033900  -0.01344900
H    3.48782400  -1.97317300   1.06003900
H    5.61521400  -1.24594700   2.39611000
H    3.85642200   2.11081600   1.00162500