13

C    0.91675600   0.06301100  -0.01496300
C    2.36314100   0.01532200   0.03031900
C    3.57614000  -0.03499200   0.06742200
C    4.98342100  -0.11857600   0.10658000
N    5.82156600  -1.06668400  -0.00205900
N    5.69487100   1.11597300   0.31372200
O    6.96697700   1.03265700   0.34816400
H    0.56002500   1.09970800   0.06273300
H    0.49730700  -0.52218300   0.81708300
H    0.55710900  -0.36935200  -0.96054200
H    5.45720700  -2.00635200  -0.15347500
H    5.28251900   2.04652200   0.43756600
H    7.08568400   0.00713600   0.20178800