16

C    0.94437000  -0.00334900  -0.02562600
C    2.38918900   0.00831200   0.03446900
C    3.61168900   0.03562300   0.12297900
C    5.07082700  -0.01527300   0.07699800
N    5.12921400  -0.80901600  -1.12935700
C    5.79282300   1.31984700  -0.07369000
O    7.09987700   0.99130700  -0.41123000
H    0.55254500   1.02096000  -0.10789800
H    0.52255100  -0.49222600   0.86434800
H    0.61780900  -0.56599800  -0.91570000
H    5.50049900  -0.58662600   0.91344600
H    5.12998900  -0.35715400  -2.04544300
H    5.04437400  -1.82516600  -1.09778800
H    5.69560100   1.85798600   0.88606700
H    5.28100000   1.92594300  -0.84764300
H    7.65170800   1.77952900  -0.43145000