10

C    0.90544400  -0.02930000   0.01625700
C    2.59062000   0.01891500  -0.05824600
C    3.05382900  -0.76679700  -1.15462300
N    3.39400300  -1.44428900  -2.04708900
C    3.04320100   1.37074100  -0.01751700
N    3.37470800   2.49197100   0.04693600
H    0.63647600   0.52017600   0.92577800
H    0.64465300  -1.09269300   0.06796200
H    0.56166000   0.45874300  -0.90466100
H    2.77573700  -0.49812800   0.91564300