20

C    2.96925900  -1.11134800  -0.43763000
C    2.35149000   0.13960900   0.20830200
C    3.33018600   1.25921900   0.27005100
N    3.41900600   2.22969800  -0.72451000
C    3.02467100   2.95650300   0.41657600
C    1.63650200   3.50306800   0.47032700
C    4.08144400   3.60871800   1.25910100
H    2.23123100  -1.92365800  -0.43797200
H    3.85181200  -1.45588100   0.11940500
H    3.26798600  -0.92098200  -1.47833000
H    2.04951100  -0.09230000   1.24292300
H    1.44675100   0.45072200  -0.33623700
H    4.22448100   1.12582700   0.88997800
H    2.73545300   2.15716700  -1.48367800
H    0.90598800   2.86564300  -0.04452100
H    1.62372000   4.49984600  -0.00264900
H    1.32443900   3.63902500   1.51569500
H    5.07698700   3.17741700   1.09895500
H    3.81557200   3.56452300   2.32365000
H    4.11726000   4.67152100   0.96667100