14

C    0.89554500   0.23477400   0.03473400
C    2.36366500   0.01254400   0.05150400
C    3.01387700  -1.23594000   0.06165800
C    2.33581400  -2.55798000  -0.02594700
O    2.47271600  -2.56378700  -1.43867400
C    3.21012300   1.14919900   0.11249900
N    3.90279000   2.08184400   0.16943300
H    0.63270900   0.97572300  -0.73770600
H    0.59270400   0.68664500   0.99747900
H    0.31665400  -0.68282900  -0.11782600
H    4.10727100  -1.24915400  -0.00178400
H    1.29874800  -2.60239400   0.32939200
H    2.92373100  -3.37830700   0.39931600
H    1.67251200  -2.23471300  -1.87804800