15

C    1.16182600   1.21540900  -0.04733300
N   -0.25706800   1.54933200   0.01107400
C   -1.30624700   0.77107500  -0.13765300
N   -1.30071800  -0.51027500  -0.38113700
C   -0.55712300  -1.56923700   0.22341900
C    0.91730600  -1.36536700  -0.06888300
C    1.58594000  -0.21407600  -0.16343200
H    1.62848000   1.63927000   0.85926700
H    1.59049600   1.77454300  -0.89589200
H   -0.45632900   2.54656100   0.06307700
H   -2.29150700   1.26132200  -0.13618500
H   -0.88324800  -2.52011800  -0.21744300
H   -0.73538300  -1.60198500   1.31181600
H    1.46818700  -2.29621600  -0.23058200
H    2.66263600  -0.29011800  -0.34523200