10

N    0.98914400  -0.04378400   0.00000000
C    2.32912000  -0.03412600  -0.00000000
O    3.09019400  -0.96424900  -0.00000000
C    2.95207900   1.33515900   0.00000000
C    3.62622300   2.35296200  -0.00000000
C    4.49047600   3.43737300  -0.00000000
O    4.17992700   4.62845600   0.00000000
H    0.42913900   0.79984100   0.00000000
H    0.51674900  -0.94381300   0.00000000
H    5.60591800   3.28759600  -0.00000000