15

C   -0.99602600   0.00002200  -1.18620000
C   -0.60685400   1.06675400  -0.13034900
C   -1.01794400  -0.00022400   0.91692000
C   -0.60686600  -1.06696100  -0.13060000
O    0.80230200  -1.16460200  -0.11590300
C    1.50719500  -0.00011600  -0.10844300
O    0.80231300   1.16437900  -0.11563100
H   -2.08259600   0.00004500  -1.33619300
H   -0.45321200   0.00013100  -2.14113200
H   -1.01245500   2.08201000  -0.13446800
H   -0.49512400  -0.00034000   1.88294500
H   -2.10739700  -0.00023300   1.04428300
H   -1.01247400  -2.08221300  -0.13495600
H    2.21236700  -0.00001800  -0.97937500
H    2.19414200  -0.00022300   0.77691400