14

N    1.14456800  -0.41230500   0.03440600
C    2.36729500  -0.40632400  -0.35341500
C    3.31680800   2.18925200  -0.13914600
C    2.41403200   2.42370300   0.90397900
C    1.59927800   2.60662000   1.79372800
C    4.60311200   1.68434200   0.06613400
C    5.72161400   1.22029900   0.22459400
H    0.90244200  -0.47789100   1.02399900
H    0.37026700  -0.28850000  -0.61907000
H    2.59996300  -0.33078700  -1.41883700
H    3.16955300  -0.55845600   0.37324900
H    3.05469700   2.55002600  -1.14224100
H    0.91301700   2.83342200   2.59256700
H    6.72196000   0.84732300   0.36881400