15

C    1.75846600  -0.00021200  -0.44813200
C    0.82373700   0.89395000   0.27826600
C    0.82367200  -0.89431500   0.27825800
C   -0.60464500  -1.00474400  -0.18309100
C   -0.87886900  -0.00011500  -1.30731300
C   -0.60457000   1.00448700  -0.18308500
O   -1.09314300  -0.00011300   0.78324000
H    1.69840200  -0.00020600  -1.54037300
H    2.77486500  -0.00025000  -0.04313300
H    1.10596400   1.36982900   1.22082600
H    1.10586500  -1.37022400   1.22081200
H   -1.09644200  -1.97889500  -0.09398300
H   -1.94188200  -0.00007800  -1.57462900
H   -0.26435500  -0.00013600  -2.21490000
H   -1.09629600   1.97867300  -0.09397200