17

C    1.31335300  -0.24443300  -0.03805500
C    2.73835000  -0.56455600   0.37093400
N    3.48839200   0.58810400   0.78594000
C    4.92349900   0.70106700   0.73449900
C    5.19469200   1.45557800  -0.55026200
N    5.26803500   2.72884700  -0.46659400
O    5.50408300   3.32766600  -1.62939300
H    0.79573800  -1.17649500  -0.29876300
H    1.29071700   0.41416600  -0.91758900
H    0.75364900   0.22697100   0.78303200
H    3.31267500  -1.07185600  -0.42376200
H    2.76268500  -1.26521600   1.23504100
H    2.97209500   1.43467100   1.04822200
H    5.37508300  -0.29926600   0.73230300
H    5.27690100   1.28217000   1.59742800
H    5.26797700   0.91534300  -1.50419900
H    5.57642300   4.27109500  -1.42751100