18

C    1.64457700  -0.34029800  -1.40645100
O    2.26573200  -0.28244700  -0.12252800
C    3.25015600   0.53016600   0.16083900
C    3.94689800   0.23400800   1.43917800
C    3.68252300   1.62744000  -0.74940200
C    2.83083700   2.56234100   0.02371600
N    3.31441000   3.40919500   0.92642900
H    1.13904000   0.60765900  -1.64289300
H    0.89922900  -1.13859200  -1.33960200
H    2.38189200  -0.59007500  -2.18220300
H    4.45598200   1.11597800   1.84714100
H    4.70892800  -0.54367300   1.25814400
H    3.23774800  -0.15981800   2.17961900
H    3.38217000   1.51715100  -1.79803700
H    4.75670900   1.84538600  -0.68015200
H    1.74922500   2.56151900  -0.13040300
H    4.30913900   3.58932000   1.01515000
H    2.69556500   3.94623300   1.52451500