11

C    1.27791800   0.08393000  -0.01570900
C    2.75532500  -0.08407500   0.00103400
N    3.29554600  -1.29218700  -0.19352100
C    4.34827100  -1.91276000  -0.26453000
O    5.27516800  -2.58150700  -0.35023000
C    4.21770900   1.88241700   0.51135200
N    3.54311500   0.96053500   0.20372000
H    0.83718100  -0.56342200   0.75890100
H    0.88840400  -0.25649600  -0.98797300
H    0.98337800   1.12447200   0.15854600
H    4.80352500   2.75605300   0.21460000