16

N    0.85584900   0.34280400   0.14304600
C    1.95183000   0.62762300  -0.64448000
C    3.09664700   1.42628600   0.21664200
O    3.87761700   2.20540200  -0.56368500
C    2.99174900   2.87756500   0.36552200
C    3.64352300   3.64574600   1.48962400
O    3.92402400   4.95295000   1.11858900
H    0.82410700  -0.48139000   0.74431800
H    0.07859100   0.99811600   0.23171900
H    1.69860200   1.31207900  -1.46452700
H    2.45959100  -0.28137000  -0.99739700
H    3.57700000   0.74149100   0.92943700
H    2.16304600   3.39630800  -0.13484100
H    4.52762400   3.08567600   1.84794300
H    2.92280500   3.68500700   2.32286100
H    4.72651800   4.97960500   0.58769700