20

C    2.39300700  -1.18358900  -1.70546400
C    2.57737200  -0.62755800  -0.33290900
C    2.23507800  -1.32716800   0.78775800
C    3.28126500   0.69132100  -0.20052900
C    4.80272900   0.43619700  -0.14784400
C    5.12491800  -0.54234200   0.98091800
N    6.34504300  -1.18084800   0.89362200
H    1.62196800  -0.59132200  -2.22689500
H    2.07208100  -2.23265700  -1.69822800
H    3.31051200  -1.08635700  -2.30790700
H    1.82677200  -2.33939500   0.72265400
H    2.25193400  -0.85987200   1.77677100
H    2.96351400   1.21465100   0.71375300
H    3.06281900   1.34686600  -1.05577800
H    5.35472600   1.37523300   0.00615000
H    5.14405200   0.01652900  -1.10890500
H    4.23980700  -1.32153100   0.90000500
H    4.97244400  -0.12565900   1.98917500
H    6.73734600  -1.44573200  -0.00698600
H    6.83415400  -1.51511400   1.71991900