11

C    0.92723300  -0.12568000  -0.00171500
C    2.42616900   0.06040100  -0.19734400
O    3.01451200  -0.94632300  -0.56258400
C    3.15580700   1.30795500   0.01629400
C    2.52072800   2.42081000   0.41756700
H    0.42321200   0.57914800  -0.67993700
H    0.70710900   0.11344700   1.04959400
H    0.62580200  -1.15457700  -0.22917700
H    4.23125500   1.27174900  -0.16947200
H    1.44492100   2.47024500   0.60697100
H    3.09021200   3.34231300   0.57050200