18

C    1.05049400  -0.33042800  -0.03362400
O    2.30852600   0.05815000   0.50476500
C    2.73213400   1.31159600   0.27845300
C    2.27324200   2.31368700   1.57770700
N    2.91633900   2.01975400   2.74781800
C    4.26183700   1.37092600   0.17130300
O    4.64895800   0.85166100  -1.04546400
H    0.89375300  -1.37756100   0.24449800
H    1.05546200  -0.22682300  -1.12917800
H    0.24069200   0.28637200   0.39191300
H    2.23315800   1.79606600  -0.58117400
H    1.19347800   2.10588600   1.61891100
H    2.49400100   3.32582400   1.21536300
H    2.63533000   1.22659000   3.31871200
H    3.74902900   2.52263900   3.04248100
H    4.68352500   0.83615900   1.04328400
H    4.58573800   2.42209300   0.20757300
H    4.61331400  -0.11165600  -1.02216500