11

O    1.14464000   0.16935200   0.08938700
S    2.68547900  -0.14598800  -0.01868800
O    3.15740900  -0.61393100   1.24674900
O    3.02917600  -0.66096200  -1.31355800
C    3.33085000   1.78074000  -0.05753600
C    4.72313100   1.76670200  -0.00265300
C    5.95566400   1.71388000   0.05030900
H    0.67959800   0.04655900  -0.76057900
H    2.83046900   2.15139700   0.85076300
H    2.90462800   2.12399800  -1.01197200
H    7.03754200   1.68230800   0.09812900