17

C    0.98960000   0.08374800  -0.15593500
C    2.51112800  -0.01582100   0.02650600
C    2.99666700  -1.27714300   0.75462400
O    3.90880700  -0.80115000   1.78360100
C    3.93093300   0.48617200   1.81204600
C    3.12123200   1.08447200   0.83495000
C    2.90379200   2.52517700   0.63441000
H    0.62680700  -0.77587000  -0.73530800
H    0.72138900   0.99399300  -0.70854100
H    0.47380700   0.09211500   0.81521800
H    2.97905700   0.04024300  -0.97715500
H    3.56380300  -1.98767700   0.14056500
H    2.19849100  -1.81778800   1.28396100
H    4.56277900   0.95852600   2.56900300
H    3.01280200   2.78572700  -0.43091400
H    3.57580700   3.14522300   1.24000200
H    1.86023200   2.77398900   0.90191400