15

N    1.62253200  -0.38062900   0.96610100
C    2.70150000   0.12377500   0.37531400
C    2.81684900   1.44490800  -0.08658100
C    1.84580100   2.45154100   0.11978200
C    4.06018000   1.78031600  -0.75150500
N    4.55495900   2.99583600  -0.73275000
O    4.77993900   0.90819900  -1.40674100
H    1.62535400  -1.32058400   1.34189100
H    0.75825500   0.14231300   1.04366800
H    4.28841100   0.09765700  -1.59870300
H    3.55459400  -0.55945600   0.32367900
H    0.97663700   2.28663300   0.75676600
H    1.89178900   3.40727200  -0.40411500
H    4.14747100   3.70818200  -0.13681100
H    5.38978400   3.21707900  -1.26916400