16

C    0.96099800   0.14821100  -0.21453000
C    2.41175700   0.21581600   0.14233000
O    3.27073700  -0.77894100  -0.35312800
C    3.45031500   0.48157500  -0.91346800
C    4.68122000   1.19185800  -0.49751500
C    5.81770200   1.26664900  -1.70335200
N    5.12690800   2.34552500  -1.15945700
H    0.48046900   1.12374800  -0.05627800
H    0.46655200  -0.58386200   0.44174400
H    0.81650000  -0.16897500  -1.25581500
H    2.65280100   0.54465200   1.16271400
H    3.13025200   0.61781700  -1.95492900
H    4.99204800   1.05929700   0.54556900
H    5.39629800   0.76200600  -2.57902400
H    6.89866000   1.19152000  -1.54428500
H    5.64788400   3.05097000  -0.63089100