12

O    0.90104200   0.18024100   0.09215100
C    2.27560700   0.11467700   0.05073700
C    2.89389000   1.22690100  -0.76356200
C    3.79164500   0.69869400  -1.68131300
C    3.72528300  -0.71737000  -1.63624200
C    2.78489600  -1.10013400  -0.68939700
H    0.56634700   0.22503600   0.99500600
H    2.76641400   0.12379000   1.04789500
H    2.63961600   2.28109700  -0.63053000
H    4.44538400   1.27851400  -2.33547400
H    4.32010400  -1.39604200  -2.25033300
H    2.43359900  -2.11539500  -0.49065500