16

C    1.75007200  -0.54506200  -1.38876700
N    3.12380700  -0.33270100  -1.13026900
C    3.60102800   0.62832200  -0.12238600
O    2.75391800   1.23073900   0.47502200
C    5.04814100   0.68531400  -0.02329100
C    5.62497700   1.52808100   0.86657800
C    7.07832500   1.68925700   1.07500600
H    1.52419400  -1.62486900  -1.28182300
H    1.54361900  -0.30753500  -2.45301800
H    1.14465400   0.07236700  -0.71533000
H    3.81552200  -0.86166300  -1.67392000
H    5.65807200   0.04631600  -0.66871800
H    4.95588800   2.14131400   1.48348700
H    7.68332500   1.04538200   0.42469400
H    7.32221900   1.48044400   2.12999600
H    7.35676300   2.74366900   0.91125000