15

O    0.97030500  -0.28465500  -0.01986300
C    2.32632000  -0.13528900   0.05865600
C    2.93045000   1.04507100   0.86011000
O    4.25710000   0.60626800   1.08629100
C    4.22352900  -0.75280400   1.33790900
C    3.02472000  -1.28621400   0.66605500
C    2.56700800  -2.60661200   0.64023800
H    0.57970200   0.36400900  -0.61720900
H    2.83714700  -0.11161200  -0.94736700
H    2.37277500   1.18930700   1.80404500
H    2.95774800   1.98573200   0.29917800
H    5.18073100  -1.24328600   1.08324300
H    4.05687800  -0.98077800   2.42709000
H    1.68182800  -2.85761000   0.04689000
H    3.06977300  -3.39697500   1.20584200