16

C    1.75622400   0.11392800   2.92855500
O    1.71665100   1.42375700   2.30881600
C    2.10619200   1.61845300   1.13568500
C    2.03681900   2.95977400   0.55628300
O    4.44073000   1.38235800   1.63851300
N    5.23031100   2.29633100   1.81804700
C    6.39108100   2.61155900   1.41088400
H    0.78098500  -0.02928500   3.40457600
H    2.55428300   0.15267700   3.67813600
H    1.95730300  -0.65536300   2.17201000
H    2.37980500   0.74888100   0.51928000
H    1.94110900   3.73290900   1.32761600
H    1.14467100   2.98050400  -0.09723600
H    2.90455900   3.13242200  -0.09468500
H    6.84038000   3.52179800   1.81019400
H    6.91724900   1.97556900   0.68816700