14

N    1.89552000  -1.84481900   0.43303200
C    2.13728700  -0.61900700   0.78388500
O    1.38587600   0.07128600   1.52274000
C    3.35905300   0.16604500   0.30942900
C    4.71628400  -0.47092400   0.62699100
C    5.06428900  -1.70228800  -0.17705400
O    4.24623900  -2.40882200  -0.71590300
H    2.61825300  -2.29891600  -0.16608700
H    1.05967600  -2.33629200   0.74510800
H    3.30661300   1.17050000   0.75367200
H    3.19965900   0.28961800  -0.77613300
H    4.81297800  -0.73606900   1.69552300
H    5.49236800   0.29269900   0.45754800
H    6.14611700  -1.94805600  -0.24081200