17

N    3.34471500  -0.87823500   2.02233300
C    2.46195100  -0.93415000   0.89303900
C    2.31212400   0.45308600   0.27334700
C    3.69603200   0.97915500  -0.12334200
N    4.64164000   0.89396900   0.97507900
C    4.60962000   1.81192700   2.03608100
O    3.65480800   2.49977700   2.25116500
H    3.94151400  -1.67465500   2.24085200
H    3.04630300  -0.33817300   2.83570600
H    1.46606800  -1.28927400   1.22406500
H    2.85466200  -1.66667500   0.17404000
H    1.84340500   1.14616900   0.98723600
H    1.66090900   0.40061700  -0.60990500
H    3.59867200   2.03180600  -0.43618100
H    4.10788600   0.40613300  -0.96474200
H    5.54331100   0.45858400   0.78936100
H    5.53450900   1.80366800   2.65114800