18

C    0.93886500   0.03220000   0.08043600
C    2.45852300  -0.02346400  -0.05727500
C    3.03595300  -1.23615200  -0.75196600
C    4.08545400  -0.93248100  -1.52177800
C    4.42299000   0.52161600  -1.45918000
C    3.06084000   1.16635900  -0.87070200
N    2.32864800   1.51990700  -2.01035200
H    0.61623100   0.96723900   0.56016400
H    0.59433700  -0.79924000   0.71052500
H    0.43344900  -0.05763300  -0.89354500
H    2.89567600   0.03322200   0.95632400
H    2.65558100  -2.24403100  -0.57490600
H    4.67225800  -1.63786600  -2.11276800
H    5.17473800   0.77364800  -0.68844100
H    4.75911700   0.97456900  -2.40420400
H    3.25598100   2.06488400  -0.27356100
H    2.01964100   0.79500700  -2.66350800
H    2.20564200   2.49104400  -2.30129700