12

O    4.51739300   1.11460600   2.86126600
C    3.49200500   1.28297500   2.33949100
C    3.49622800   1.36697500   0.61494800
O    2.39759900   1.54149200   0.16576300
N    4.68257800   1.22585300   0.13420800
C    6.08868700   1.02085200   0.33709700
C    5.50770700   1.16923300  -1.04512400
H    2.47265500   1.40406400   2.76358800
H    6.38350700   0.02364400   0.67809500
H    6.63855600   1.86307100   0.76830700
H    5.64052500   2.11691900  -1.57576600
H    5.38519800   0.27642000  -1.66578500