15

C    1.38553000   0.23883100  -0.65124800
O    2.77880800   0.41249600  -0.38175000
C    3.28718100   1.57203700  -0.07190700
C    2.54962500   2.76741900   0.03248100
C    4.69392000   1.54570900   0.16241500
N    5.30022700   2.66759700   0.48134800
N    6.55703600   2.67929000   0.69720200
H    1.25887200  -0.82429200  -0.87515200
H    1.08647800   0.83922400  -1.52239000
H    0.78848400   0.50506900   0.23274200
H    1.47429400   2.80211700  -0.14486000
H    3.07368200   3.68504700   0.29899600
H    5.21818600   0.58437100   0.06635000
H    6.98383400   3.56999200   0.94071400
H    7.14587500   1.84314500   0.63638900