18

C    2.78155000  -1.47001400  -0.50374800
C    2.05846400  -0.20484300  -0.09882600
O    1.27965800  -0.43468000   1.01357500
C    3.08999100   0.93855300   0.30802200
C    3.99906300   0.62917500   1.46141500
C    3.47845500   1.81260900  -0.94917500
N    2.67267500   2.25535900   0.11695800
H    3.50205300  -1.27896800  -1.31081100
H    2.04033400  -2.19829100  -0.85874200
H    3.30285100  -1.91755800   0.35338700
H    1.47062900   0.19704100  -0.94284400
H    0.52711300   0.16776900   1.04821700
H    4.62899900   1.48966300   1.72360500
H    4.65095200  -0.21443700   1.19200500
H    3.40725700   0.33101800   2.33803200
H    2.97136000   1.46960800  -1.85889400
H    4.45883700   2.28257400  -1.07971600
H    2.92256900   3.03155900   0.73633900