19

C    0.73522900   2.86495700   0.24746700
C    2.03254500   2.08255600   0.33376400
N    3.15920200   2.97355500   0.59570900
N    4.37065900   2.61857500   0.29811300
C    5.34555100   3.37401200  -0.08867900
C    5.13349600   4.76884200  -0.57843800
C    6.71720700   2.80131100  -0.06415600
H   -0.09275900   2.16506000   0.07556400
H    0.74953300   3.58398700  -0.58342100
H    0.52071000   3.40123600   1.18418500
H    2.26612300   1.54461100  -0.59609700
H    1.99975100   1.33814800   1.14839700
H    3.02514000   3.74887800   1.25439600
H    4.08586400   4.97885500  -0.82631900
H    5.76757600   4.96269300  -1.45468600
H    5.46709300   5.46465400   0.21138700
H    6.74472300   1.82612800   0.43447900
H    7.40367700   3.50386300   0.43216100
H    7.07347100   2.69104500  -1.10171400