14

C    2.32636800  -0.67371300   1.18182700
O    2.90672900   0.01081100   0.02626400
N    3.55620300   1.07676300   0.26996100
C    4.69362400   1.48533100  -0.07929300
C    5.14486600   2.94296500   0.21225400
C    4.08355400   3.98764600   0.31126000
O    6.32244800   3.07961800   0.33639700
H    1.98985400  -1.63172200   0.77523500
H    1.47885100  -0.07314900   1.53694400
H    3.10100400  -0.79324500   1.94991000
H    5.44199500   0.78843700  -0.49225900
H    3.61651100   4.12863100  -0.67694900
H    4.53110600   4.93208700   0.64215100
H    3.29758800   3.67097200   1.01482600