14

C    0.95502800   0.00100800   0.13137700
C    2.43759200  -0.02799300  -0.15615200
C    2.97985500  -1.25717900  -0.90039300
C    3.56187000  -0.70040400  -2.13580500
C    3.36382100   0.68715400  -2.12254100
O    2.76097500   1.09562200  -1.06938400
H    0.66293300   0.96332900   0.57081800
H    0.72438200  -0.79181200   0.85704500
H    0.36840800  -0.17654300  -0.78142800
H    3.02035200   0.20427600   0.74781100
H    2.19058800  -1.99539800  -1.14175000
H    3.73599200  -1.82235200  -0.32458400
H    4.05716300  -1.25730300  -2.93305000
H    3.64777900   1.43652600  -2.86696100