11

N    0.95965500   0.32067100  -0.08902400
C    2.29324600   0.25482800  -0.03696800
C    3.08848300   1.43084300  -0.14548800
C    4.43754300   1.24551200  -0.16229100
O    4.95665900   0.02154700  -0.10642900
C    4.15844500  -1.03756200  -0.02664600
N    2.87440000  -0.97205400   0.02761400
H    0.43302200  -0.32325100   0.51747900
H    2.64569400   2.42454600  -0.21717000
H    5.19409200   2.02888700  -0.23774500
H    4.70696700  -1.98330800   0.00752900