17

C    1.54116500   0.18607500   1.55935800
C    1.85495200   0.49771800   0.08556300
C    2.70354200   1.72214300  -0.05164200
C    2.17557300   3.06218500  -0.15963400
C    0.85631800   3.34807800  -0.09606800
N    4.01281900   1.50691900  -0.09385500
N    4.88313400   2.37999000   0.25532100
H    0.93840800  -0.72973300   1.61478600
H    0.97360900   0.99807200   2.03604800
H    2.46158000   0.01845700   2.13637500
H    0.92536200   0.62282900  -0.48651000
H    2.40880700  -0.33923200  -0.36186300
H    2.88382700   3.87684600  -0.33863700
H    0.09206700   2.57882400   0.04037800
H    0.50920600   4.38125600  -0.17388900
H    5.85364100   2.19869100  -0.00234300
H    4.67372700   3.16205900   0.88405000