18

C    1.80131400  -0.47255400   0.28573000
N    2.70903100  -0.15287900  -0.77860300
C    3.43439100   1.03749500  -0.81852000
C    4.79646100   0.96879800   0.07432100
O    4.49278200   0.83048600   1.40574700
C    5.76700900  -0.08212900  -0.46715400
O    7.06013400   0.16647800  -0.04814600
H    1.70756500  -1.55947400   0.40021100
H    0.80164200  -0.05597200   0.05774900
H    2.15227700   0.00453100   1.21441100
H    2.84440200  -0.83774600  -1.52373300
H    2.86081500   1.85422100  -0.35578400
H    3.73985600   1.28373000  -1.84385800
H    5.21569900   1.97667400  -0.07867700
H    4.56167100  -0.09038500   1.68788100
H    5.77303900  -0.03961300  -1.56720700
H    5.39632200  -1.09246600  -0.18163900
H    7.15472100   0.01264300   0.89778100