13

C    0.81872000  -0.01071100  -0.23597200
C    2.27603200  -0.19541900   0.11276000
C    2.67146700  -0.05363300   1.56293800
C    3.19734800  -0.80792800  -0.85073500
O    3.15426300   0.62134700  -0.77226700
H    0.64107200  -0.04096100  -1.31827900
H    0.43709400   0.93040400   0.18114300
H    0.27857600  -0.84722200   0.23500000
H    3.75749400  -0.11283000   1.70752400
H    2.19694600  -0.89187100   2.09727000
H    2.28794600   0.88735500   1.97859200
H    2.85921700  -1.16198800  -1.83811800
H    4.18546400  -1.19270300  -0.55041600