17

C    1.02673600  -0.13063600   0.22112300
C    2.50965800   0.07516300  -0.11526900
C    2.75463000   0.11364500  -1.62943000
C    3.26328300   1.14503000   0.73007900
C    4.08267800  -0.00549400   1.34358000
N    3.34574200  -0.93034600   0.53312900
H    0.86163800  -0.19707000   1.30521100
H    0.63261800  -1.03403400  -0.26506300
H    0.47510700   0.73956400  -0.16213000
H    3.82212400   0.22156700  -1.86549700
H    2.21954900   0.98603900  -2.03070700
H    2.36171000  -0.78971100  -2.11667800
H    2.63243300   1.68783700   1.44409100
H    3.85021000   1.85960000   0.14069900
H    5.16831300  -0.04400200   1.13129200
H    3.96224300  -0.21484600   2.42373200
H    3.39189000  -1.95211400   0.44079900