12

N    0.92393500   0.10084900  -0.00006300
C    2.23826600  -0.03552100  -0.00328700
C    3.14609800   1.07987900  -0.00317300
O    2.62132400   2.28662300   0.00015300
C    4.49280400   0.67309300  -0.00717200
C    4.60730500  -0.69663100  -0.01071100
S    3.09189500  -1.54479300  -0.00761400
H    0.52083900   1.03570900   0.00382300
H    0.29034200  -0.69292200  -0.00002900
H    3.28291600   2.99223100   0.00204500
H    5.34660400   1.35077100  -0.00773300
H    5.53218800  -1.27489100  -0.01442900