20

C    2.09678400   3.24933800  -1.55055800
C    2.84807000   1.98100500  -1.22765200
O    4.01644400   2.31327300  -0.47690000
C    4.80098900   1.23676600  -0.07167600
C    6.03980200   1.85698700   0.58303800
N    5.65375000   3.04512300   1.26992400
C    6.37245500   3.70217600   2.30859400
H    1.20239100   3.01045800  -2.14199100
H    2.72190700   3.93627600  -2.13829300
H    1.76997500   3.75999800  -0.63319500
H    3.15722400   1.45528600  -2.14823700
H    2.22604400   1.28645600  -0.63496200
H    5.11417000   0.59782000  -0.91560500
H    4.26966000   0.59638000   0.65828000
H    6.76219300   2.17734900  -0.20092000
H    6.58441600   1.17773400   1.25700900
H    4.78210400   3.44631200   0.87762000
H    6.59846200   4.73711600   1.99496800
H    7.29287300   3.16161300   2.55574400
H    5.72189300   3.78155600   3.19905200