15

C    2.22010100  -0.40657100  -1.57744800
O    2.17710200   0.30648900  -0.35114400
C    3.15351000   1.26638700  -0.17346100
C    3.38930500   1.53001000   1.32648400
N    3.12280100   2.95755100   1.41704200
N    2.67243400   3.53015900   0.34297700
C    2.65370900   2.62325000  -0.61694700
H    1.41427300  -1.14707400  -1.53630100
H    3.18791900  -0.92244500  -1.69484100
H    2.05120300   0.25627500  -2.44224000
H    4.10153400   1.01311000  -0.69087800
H    4.39934600   1.31666500   1.70442700
H    2.65144200   0.97142000   1.92686300
H    3.25801600   3.53736200   2.25112000
H    2.23366900   2.87665700  -1.59321300