14

C    1.11472700   0.01872300   0.16518400
C    2.55755200  -0.09399600  -0.10462400
N    3.16234900   0.89629200  -0.79772200
O    4.45312100   0.92223600  -0.85745400
C    5.18195400   0.09054500   0.08234900
C    4.58976700  -1.28886800  -0.00024200
O    3.16423200  -1.18089900   0.22139500
H    0.57215300  -0.48912500  -0.65208200
H    0.80735100   1.07159900   0.17476300
H    0.86455000  -0.48946700   1.10515200
H    6.22756100   0.13045100  -0.24107900
H    5.07706100   0.54348600   1.08096000
H    4.97150400  -1.95224500   0.78489200
H    4.73175900  -1.76283000  -0.98285400