16

C    1.52995300  -0.60060700  -1.05815900
C    2.51968100  -0.14081400  -0.22249100
C    3.25148700   1.03043900  -0.50372700
C    4.27411900   1.48361800   0.32870300
C    5.02899700   2.66846600   0.08852800
C    5.11497500   3.67515200   1.29674000
N    6.21907800   2.88827300   0.90942700
H    0.97227200  -1.51111700  -0.82670400
H    1.27140900  -0.06874300  -1.97863600
H    2.75389500  -0.69984500   0.68932600
H    3.01986700   1.59475800  -1.41402600
H    4.51029300   0.92571700   1.24324600
H    4.95087800   3.14345300  -0.89505600
H    4.60284800   3.39192100   2.22088600
H    5.03601400   4.72946600   1.00783200
H    6.91628100   3.41662300   0.38319800