12

O    1.43140800  -0.19516000  -0.80994700
C    2.58414900  -0.18006700  -0.05499200
C    3.08262900   1.21207400   0.02033100
C    2.43407500   2.34885700  -0.61097100
N    3.03692600   3.51382900  -0.42576000
C    4.11620000   3.37746800   0.30745900
S    4.47561600   1.73230900   0.84080900
H    1.07859000  -1.08864000  -0.88003600
H    3.40529200  -0.80691600  -0.47152800
H    2.44494800  -0.54174300   0.98931700
H    1.51618500   2.24621600  -1.19508300
H    4.77456900   4.20609700   0.58989300