13

C    1.00887900  -0.20307500  -0.07434800
C    2.44092900  -0.03207500   0.10124200
C    3.13346200   1.20942200   0.07408000
C    2.47802100   2.51997600  -0.14407000
C    4.52803700   1.14613100   0.27854100
N    5.68055100   1.08901600   0.44754800
H    0.84344600  -0.91009700  -0.91333200
H    0.43620100   0.71677000  -0.23034400
H    0.61411300  -0.76450600   0.79685800
H    3.04679900  -0.93174300   0.26933100
H    1.74864700   2.70661600   0.66606900
H    1.89799200   2.50178600  -1.08362100
H    3.19945100   3.34366400  -0.17372400