14

N    0.07512300   1.04734700   0.38464600
C    1.24862900   0.48256400   0.45225700
C    2.31941000   0.77560100  -0.42582300
C    3.59853100   0.03690800  -0.21337200
O    3.62488800  -0.77046400   0.70250600
C    4.72097500   0.33283600  -1.11472800
C    5.89240900  -0.30109700  -0.97105400
H   -0.66442900   0.80183300   1.04301400
H   -0.15266400   1.75028800  -0.31930600
H    1.42497000  -0.26580000   1.23488000
H    2.20734300   1.51406000  -1.22683300
H    4.57138800   1.07985500  -1.89899500
H    6.02854500  -1.04639800  -0.18221200
H    6.73524800  -0.09193500  -1.63276900