16

C    0.60723700  -0.16178400   0.35610100
C    1.49511100  -1.37607900   0.21061800
O    2.77117500  -1.13742200   0.88876200
N    3.67914300  -0.62719300   0.14289000
C    4.80610300  -0.40246500   0.82226900
C    5.89044600   0.15476400   0.12187500
C    7.08331200   0.41383100   0.75233900
H   -0.36009200  -0.38885700  -0.11375000
H    1.04130900   0.70883200  -0.15496900
H    0.42620700   0.08046800   1.41195100
H    1.73461500  -1.61620400  -0.83345400
H    1.09982900  -2.25681300   0.73124600
H    4.85582600  -0.65662600   1.89034700
H    5.75403700   0.37526900  -0.94101400
H    7.22683000   0.19505600   1.81503600
H    7.92573100   0.84705400   0.20726300