17

O    0.82762800   0.20306700   0.33368200
C    2.16500400  -0.20838900   0.21086700
C    3.06399600   1.01370700   0.18924700
C    2.44989500   2.05454400   1.55593800
O    1.33518800   2.59400600   1.11203500
C    4.46472000   0.81817000   0.45787100
C    5.43475500   1.60938500  -0.08610200
H    0.22259000  -0.54056200   0.23897800
H    2.33804700  -0.74329400  -0.74190200
H    2.46167700  -0.88331400   1.03472400
H    2.85334200   1.70143600  -0.64156500
H    3.22644000   2.80263400   1.74503200
H    2.35905800   1.27138300   2.32707600
H    0.67737900   1.87540400   0.96624100
H    4.75533400   0.01203100   1.14163900
H    5.18560600   2.44870200  -0.74321000
H    6.49320300   1.41685200   0.10584400