18

C    0.76771600   0.28475200   0.00994100
C    2.26275200   0.15073700   0.01210100
C    2.79930500  -0.83918900   1.18313700
C    2.80107600  -0.86289800  -1.13596600
C    2.99418200   1.48315600  -0.00046300
C    4.44952900   1.35974300   0.00103300
N    5.59094000   1.18672600   0.00311300
H    0.43447200   0.84783500  -0.87687500
H    0.43325900   0.86671400   0.88398000
H    0.26366100  -0.69028700   0.01990800
H    2.46013300  -0.19470700   2.02398600
H    3.88896500  -0.94712800   1.18570400
H    2.27307400  -1.79843000   1.19933400
H    2.46455200  -0.23612800  -1.99128000
H    2.27426600  -1.82196900  -1.13391400
H    3.89066000  -0.97175200  -1.13455000
H    2.67365200   2.08308500   0.86916900
H    2.67412100   2.06588900  -0.88190700