16

N    2.05651900  -0.37863200  -1.08350900
C    2.54515700   0.09026500   0.08471800
C    3.68567300   1.50898700  -0.17693600
O    2.98533000   2.44832300  -0.81536600
C    2.82120200   3.58455200   0.05518700
C    3.29372200   3.04582700   1.40657300
O    4.08170500   1.90658400   1.02782300
H    1.27940500   0.07970900  -1.55055500
H    2.53517400  -1.10553000  -1.60742400
H    3.21155400  -0.59605500   0.61940300
H    1.80632900   0.59788500   0.71639500
H    4.46479400   1.00701700  -0.77047100
H    3.44926800   4.39814200  -0.33390900
H    1.76975500   3.89528400   0.04183500
H    3.93873900   3.73340400   1.96487900
H    2.47056900   2.71247900   2.05759600