16

C    0.99648000   0.05981000   0.85547400
N    2.36730200   0.48740600   0.87378500
C    2.93027900   1.40930500  -0.01582500
C    2.52206300   2.96726300   0.43008800
O    3.13959900   3.35919300   1.56508500
C    4.37254500   1.30048700  -0.12111900
C    5.57408400   1.23253700  -0.21089200
H    0.51610600   0.27349200   1.82443500
H    0.95854900  -1.03262400   0.70240700
H    0.45240000   0.55550400   0.04243800
H    2.97429600   0.12928800   1.61501100
H    2.42533900   1.33347400  -0.99607400
H    1.42061100   3.00106200   0.45516900
H    2.91077400   3.53418000  -0.42905300
H    2.56507400   3.29028700   2.33541900
H    6.64625200   1.16888800  -0.29841100