14

C    0.63678400   0.48957500   0.75115400
C    1.75505600   1.21521200   0.11228600
O    2.39868400   0.79687700  -0.92118000
C    2.15515600  -0.38203600  -1.59472500
C    2.92436800  -0.65494000  -2.64838400
N    2.12880200   2.39650600   0.64591000
O    3.11863700   2.94496600   0.00629100
H    0.27280800   1.06700800   1.60783500
H    0.96931300  -0.50319400   1.09609900
H   -0.18737600   0.34426800   0.03361900
H    1.34644000  -1.00518100  -1.21156200
H    3.71613000   0.02692900  -2.96664800
H    2.76118900  -1.57836600  -3.20583000
H    3.30688900   3.78260200   0.46798700