10

N   -1.15039100  -0.00015500   0.00054400
C   -0.36439600   1.10541800   0.00022900
C    1.00501400   0.68571200  -0.00014600
C    1.00501200  -0.68601600  -0.00004500
C   -0.36441400  -1.10571800   0.00039100
H   -2.16805700  -0.00014600   0.00084600
H   -0.78621000   2.11124600   0.00028100
H    1.86263300   1.35609000  -0.00044900
H    1.86262400  -1.35640400  -0.00025100
H   -0.78622300  -2.11154800   0.00058900