18

N    2.62952100  -0.64870200   1.33681000
C    1.93096000   0.28379800   0.50807700
C    2.82842800   1.18761900  -0.30409400
C    2.22693200   2.02159600  -1.26467900
C    4.22328200   1.16837900  -0.05995400
C    5.27119900   1.44244600  -1.21473300
C    5.08847200   2.48357100  -0.23469600
H    2.13168700  -0.86324300   2.19466600
H    2.84442400  -1.52208700   0.86268400
H    1.31640700   0.96076500   1.13110100
H    1.20385000  -0.16396600  -0.20314200
H    1.14820300   1.97500800  -1.43931600
H    2.79692400   2.73973400  -1.85909600
H    4.53660500   0.47605000   0.72475600
H    4.85320600   1.55718600  -2.21736800
H    6.12535300   0.76511600  -1.13693000
H    5.79901600   2.58534000   0.58981100
H    4.53892700   3.39162400  -0.49184500