16

C    0.96879200  -0.02988000   0.07866800
C    2.49360200   0.00607200   0.06820400
C    3.23771600   1.12933300   0.83761700
C    3.87690600   0.04142500   1.67291300
O    4.63601900  -0.13596100   2.55778400
N    3.13443000  -0.98562400   0.93034400
C    3.04180100  -2.39330900   1.06167500
H    0.58885500  -0.95752900  -0.37050000
H    0.60346600   0.81344800  -0.52297600
H    0.57831700   0.07335500   1.10103800
H    2.86711300  -0.14325800  -0.96400100
H    2.59518600   1.80038100   1.42656500
H    3.95561000   1.72740600   0.25945800
H    2.01761600  -2.65684500   1.39272300
H    3.77825700  -2.74152900   1.79714800
H    3.19172800  -2.86851000   0.07609600