13

C    1.12193400   0.03738500   0.14792600
N    2.52715700   0.31305600   0.34121600
N    3.20248800   1.16251500  -0.38639000
C    4.62124800   1.27061200  -0.14322400
O    5.09363300   0.56164600   0.69639800
C    5.26434000   2.24227500  -0.97432100
C    5.82977700   3.05723400  -1.66519100
H    0.74992200  -0.47164200   1.04401000
H    0.98269900  -0.61794500  -0.72776900
H    0.57071600   0.97753300   0.00427800
H    3.12918600  -0.20706800   0.99575200
H    2.71039300   1.72933200  -1.07917100
H    6.34341100   3.78277100  -2.27741300