14

C    2.07230900  -0.45417400  -0.76998200
O    2.88226000   0.17477000   0.22682100
C    3.45539000   1.43887500  -0.04147300
C    2.57475600   2.08438300   0.99811600
C    1.37196500   2.66747600   0.68743200
C    4.88589600   1.45585500   0.25194700
N    6.01503600   1.48535500   0.48596200
H    1.46233600  -1.20320600  -0.25569000
H    2.76416100  -0.93947700  -1.47890400
H    1.44637500   0.27551900  -1.30379000
H    3.26320500   1.78165300  -1.07094200
H    2.90711100   1.98163800   2.03645700
H    0.96377800   2.66216700  -0.32858600
H    0.79896800   3.18822000   1.46118200