21

C    0.79315900  -0.14392000  -0.15419600
C    2.27762600  -0.26212900  -0.05162800
N    2.94035400  -0.84921100  -1.05796100
C    3.10725300   1.84797400   0.03634500
C    2.41962400   2.40184600  -1.17523100
C    2.62346600   2.24932900   1.39799300
N    4.42717800   1.61796000  -0.08257000
H    0.38683100   0.58358900   0.55823300
H    0.34057400  -1.12072700   0.08657900
H    0.47375300   0.13151200  -1.16997700
H    2.71562500  -0.41361300   0.93963700
H    3.89461300  -1.16839400  -0.94908200
H    2.51172300  -0.97664300  -1.96782800
H    2.68995100   1.84457400  -2.08473800
H    2.73446100   3.44975900  -1.31720600
H    1.32954000   2.39824300  -1.06014700
H    3.10615500   1.66933900   2.19828500
H    1.53582900   2.14967600   1.49165800
H    2.86890700   3.31282400   1.55999900
H    5.01871100   1.49867200   0.73134300
H    4.87897600   1.59980200  -0.98882500