20

C    0.90220800  -0.09217600  -0.22092200
C    2.42402100  -0.17049400  -0.21798200
C    3.06054900   1.23340500  -0.06999100
C    4.54283000   1.13260900  -0.03930800
N    5.22589700   1.29775200  -1.13039300
C    5.34738600   2.16730000   1.95301800
C    5.25843200   0.84886700   1.24534200
H    0.47128100  -1.09630600  -0.33129000
H    0.53308500   0.52535400  -1.05296300
H    0.52147700   0.33624700   0.71783800
H    2.78309900  -0.63255100  -1.15167100
H    2.76514200  -0.81835700   0.60539200
H    2.71840900   1.69305800   0.86900100
H    2.73442200   1.88080300  -0.89894400
H    6.23673500   1.17448500  -1.15463400
H    4.77380400   1.56214400  -2.00422700
H    4.61812800   2.44400600   2.71641300
H    6.11816500   2.88777500   1.67170200
H    6.25553400   0.42183400   1.05121400
H    4.67210900   0.12317800   1.82743400