16

O    1.86631200  -0.04086700  -1.25938000
C    2.32605800  -0.05226300   0.05653000
C    3.22992600   1.18204100   0.15737200
N    2.63807800   2.34256400  -0.43763600
C    2.97285400   3.26194300   0.61396200
C    3.42646000   2.02717800   1.46242700
O    4.62066000   2.02873900   2.11074500
H    1.42085200  -0.86604800  -1.47877000
H    2.91953800  -0.94439000   0.31687300
H    1.50670400   0.04431400   0.79285700
H    4.19443700   0.96595700  -0.35090800
H    1.96437400   2.37074600  -1.21292400
H    3.79836000   3.93893800   0.31586900
H    2.12692300   3.88810800   0.94395200
H    2.64764900   1.76971000   2.19577800
H    5.35308700   2.26636000   1.53139000