11

C    1.96477700   0.31728800  -0.69079400
C    2.66598600  -0.01974900   0.69451700
C    3.34067100   1.32051300   0.61546700
N    3.88337400   2.33342300   1.21458700
S    3.64600100   3.60914900   0.17042000
N    2.74768000   2.87925900  -1.02730200
C    2.68810200   1.63415800  -0.67288200
H    0.86858600   0.40237400  -0.69703500
H    2.27662800  -0.33851900  -1.52012300
H    3.37111200  -0.86553000   0.64429400
H    2.01726400  -0.14878100   1.57285200