16

C    0.96857000  -0.02504600  -0.03645100
C    2.41715400   0.00431900  -0.00571700
C    3.63208800   0.04961700   0.02158300
C    5.04628000   0.06972900   0.11914500
C    5.84700200  -0.76784100  -0.99995700
N    5.88954800   0.61963500  -0.90703000
C    7.06420100   1.41946100  -0.68132600
H    0.57466200   1.00268000  -0.05789300
H    0.57583500  -0.53065400   0.85725000
H    0.61169900  -0.55054800  -0.93413500
H    5.47361100   0.14085100   1.12912200
H    5.12326300  -1.20955100  -1.69348800
H    6.76747300  -1.33131200  -0.80336600
H    6.75694200   2.43420000  -0.40024700
H    7.65792700   1.43431600  -1.60492700
H    7.67884800   0.98482400   0.12976700