17

C    2.76011700  -0.48145300  -1.41157900
C    2.37770500   0.22088100  -0.10760600
C    2.75158800   1.62764400   0.06401600
C    1.90572900   2.52102300   0.73527100
C    4.08949900   2.07076700  -0.34928500
C    5.22620900   1.29248200   0.40661400
O    5.09343700   0.22057800   0.89756500
H    2.43280900  -1.52764600  -1.36978200
H    3.84494900  -0.48805300  -1.58323400
H    2.26151900  -0.00369000  -2.26780300
H    3.00905800  -0.24953400   0.70653600
H    1.32884900   0.04892800   0.17232700
H    0.90388700   2.21274700   1.04792500
H    2.21290700   3.55019700   0.94213000
H    4.26316800   3.14748100  -0.22125000
H    4.30178500   1.80769400  -1.40290600
H    6.19415300   1.84208800   0.40950400