17

O    2.00910200  -0.16780400  -1.40255600
C    2.35425900   0.01804800  -0.06843500
C    3.07397200   1.35966500  -0.01248500
C    2.24748900   2.53594200  -0.55472100
C    2.89129400   3.72354700   0.13125200
O    3.43215400   3.24835900   1.33975100
C    3.41133800   1.84569200   1.39008500
H    1.62933600  -1.04233000  -1.53205500
H    3.02354200  -0.77449800   0.31640200
H    1.46623300   0.05240100   0.59783400
H    4.01121100   1.27245100  -0.58860800
H    1.19106100   2.45468000  -0.24940300
H    2.27762300   2.60738100  -1.64780400
H    3.78642200   4.12588900  -0.40959300
H    2.29474000   4.62105400   0.37787000
H    4.34451300   1.52488400   1.88604800
H    2.59889400   1.62205800   2.13097900