17

N    2.72522100  -0.94056100  -0.39285100
C    2.28884700   0.13476300   0.16810200
N    2.94440800   1.30026600  -0.09223800
C    2.57258800   2.58411400   0.49555900
C    3.37597800   3.60450000  -0.30798300
C    4.63109100   2.82041600  -0.70215100
C    4.09649000   1.41839400  -0.98390000
H    2.16126300  -1.76021000  -0.14562500
H    1.42947200   0.22121300   0.84919000
H    2.88490100   2.55285000   1.55764200
H    1.47869300   2.70410300   0.47697200
H    2.80738400   3.91191100  -1.19874600
H    3.59052700   4.50563800   0.27891900
H    5.14666900   3.23970700  -1.57447100
H    5.35237100   2.78881800   0.12860400
H    3.71134300   1.31068000  -2.01577500
H    4.78367100   0.57714500  -0.81684600