15

C    0.93549700   0.05732900   0.08876700
C    2.41057500   0.03839500  -0.03134500
C    3.22988400  -1.09787400  -0.13333300
C    4.68174100  -0.70652500  -0.05107400
O    5.53607800  -1.31356100  -0.94302700
C    4.57891200   0.79819600  -0.12130000
C    3.26008900   1.18861000  -0.03646600
H    0.48861200  -0.91913700  -0.13194700
H    0.50439100   0.82196300  -0.57527200
H    0.65756500   0.34445500   1.11769100
H    2.88905600  -2.12930000  -0.25464200
H    5.03698500  -0.96162900   0.96912300
H    5.28289200  -1.12365000  -1.85452000
H    5.44928800   1.45219900  -0.21483200
H    2.90613800   2.21969000   0.02308700