14

C    0.85901300   0.01060900   0.03834400
C    2.33976700   0.13093300  -0.00069800
C    3.15014700   0.99093400   0.94450700
O    4.10260700  -0.07641500   1.17239300
C    3.29160800  -1.10183300   0.83943100
C    3.88180100  -2.24117000   0.20333600
N    4.31835800  -3.16450400  -0.34229800
H    0.50824100  -0.86986400  -0.51674300
H    0.46002100   0.89871800  -0.48810600
H    0.44793700   0.01079000   1.05682600
H    2.79898900   0.07445000  -1.00002500
H    2.66121800   1.29107400   1.88550700
H    3.68549400   1.84687900   0.50402700
H    2.50656600  -1.35088000   1.58489800