13

N    1.25034200  -0.02431000   0.71351200
C    2.36153900   0.04275400   0.08160500
N    3.08656700   1.08586800  -0.24534100
C    4.41296200   0.81080900  -0.81327100
C    4.58949000  -0.69490900  -0.64990800
C    3.21254100  -1.25129700  -0.37077600
O    2.75226700  -2.32903300  -0.44918800
H    0.54665100  -0.73720900   0.49925700
H    2.72456800   2.03560800  -0.16308200
H    4.43002700   1.12779200  -1.86591800
H    5.16481100   1.39413900  -0.26433800
H    5.02396000  -1.20053900  -1.52285200
H    5.20887800  -0.95052100   0.22702200