21

C    7.51135400   0.69283100   2.59675800
C    6.63683800   1.20461700   1.44813000
C    5.30190300   0.47229300   1.46973400
C    4.37946100   1.04284700   0.27116800
O    3.23679100   0.31162600   0.28210200
C    2.08499900   0.76515300   0.98633700
C    1.01414900   1.14149700  -0.03798300
H    8.47491800   1.22256200   2.57640900
H    7.71539100  -0.38326800   2.50277500
H    7.04627700   0.87667600   3.57589500
H    7.14395300   1.03545600   0.48588300
H    6.47796600   2.28932600   1.55010700
H    4.74103800   0.64426400   2.40105700
H    5.41135900  -0.60880900   1.30656900
H    4.92282700   0.82547900  -0.65991600
H    4.20468500   2.11452000   0.45685300
H    2.35941500   1.61006100   1.63563600
H    1.75601500  -0.10181400   1.58067600
H    1.33524400   2.00032400  -0.64233000
H    0.11096700   1.41864900   0.52340900
H    0.77820600   0.29250400  -0.69195700