8

C    0.98017900  -0.00781900   0.02394000
C    2.32927700  -0.02166400  -0.02933400
C    3.03105300   1.23582800  -0.01380400
O    4.23957900   1.38934500  -0.05580000
H    0.42384000  -0.95022500   0.01349500
H    0.39572600   0.91628500   0.07841600
H    2.92915300  -0.93364100  -0.08399200
H    2.46793600   2.20495900   0.04142000