14

O    1.15846800   0.08266800   0.01014700
C    2.31873500  -0.01059500  -0.00803100
C    3.32600300  -1.15658400   0.07517900
C    4.60350800  -0.30424900  -0.12456400
C    4.22081300   0.64511500  -1.28824300
C    3.41785500   1.31419000  -0.14322800
N    4.36883000   0.84892200   0.75148800
H    3.15413800  -1.92163700  -0.69634600
H    3.23926100  -1.63434000   1.06472600
H    5.56664700  -0.82425000  -0.05672100
H    3.67879000   0.23178000  -2.14894100
H    5.04868800   1.28920100  -1.60974100
H    2.93286200   2.29337500  -0.07832800
H    4.42559200   0.94237400   1.76770200