17

C    0.91274000   0.00037700   0.10596800
C    2.43340200  -0.00289700  -0.00157600
C    3.18733300   1.05732600   0.83738400
C    4.38380400   0.23455600   1.22676800
O    5.47867500   0.19780100   0.51536000
C    3.10438200  -1.23355200   0.55651400
O    3.68259900  -2.04871600  -0.28558600
H    0.47712800  -0.81122600  -0.49316600
H    0.51677000   0.95287500  -0.27311600
H    0.58250100  -0.11485900   1.14927500
H    2.74162200   0.07128400  -1.05648600
H    2.62304200   1.34183700   1.73698400
H    3.44621400   1.97436200   0.28634200
H    4.55958100  -0.08111300   2.26230600
H    5.39297000   0.63194100  -0.34754000
H    2.77404800  -1.64043500   1.52467900
H    3.97880900  -2.87673100   0.12230900