18

C    2.03875100  -0.21046900  -1.26959600
N    3.26722000  -0.01388800  -0.56544600
C    3.72462300   1.23922600  -0.06857900
C    3.15400200   1.52407800   1.38555600
C    3.01154600   3.05269000   1.42126400
C    2.90001400   3.43471500  -0.02368800
C    3.25765000   2.44247600  -0.84650600
H    1.59426700  -1.17540200  -0.98782100
H    2.24028100  -0.23873800  -2.35855700
H    1.35817800   0.62952500  -1.07281000
H    3.85051200  -0.83587600  -0.39099900
H    4.82660900   1.17447600  -0.01211800
H    3.80703700   1.10262200   2.15974000
H    2.16537300   1.04951900   1.46775200
H    3.88836300   3.54540200   1.87381000
H    2.13907700   3.36063100   2.01775800
H    2.61980000   4.43618200  -0.35619300
H    3.31907600   2.49815100  -1.93504600