14

C    1.13278500  -0.10128200   0.98342700
C    1.80044500   0.43449500  -0.08627600
C    2.86301900   1.42469000   0.04519900
C    2.95053200   2.84363400  -0.59422800
C    3.47580500   3.21959800   0.79361200
O    3.20357400   1.88863400   1.29236900
H    0.32471400  -0.82117900   0.82984900
H    1.37907300   0.19231500   2.00819100
H    1.60242500   0.08460100  -1.10496200
H    3.73680800   0.82393400  -0.37790500
H    1.95565500   3.24067100  -0.83420200
H    3.62625100   2.96352600  -1.44799700
H    4.54469900   3.45848400   0.89120500
H    2.87776400   3.95701200   1.35183700