19

C    0.87751300  -0.82055300   0.62107200
C    2.28112700  -0.82858800   0.02158600
C    2.94817000   0.54959100   0.12196600
C    4.34305300   0.49358300  -0.46933500
C    5.13947100   1.82659900  -0.44204400
C    6.65782200   1.75487000  -0.50134700
O    4.56878800   2.87141100  -0.38801300
H    0.42100600  -1.81583100   0.53250700
H    0.22479700  -0.10326500   0.10200900
H    0.89871200  -0.55388300   1.68810800
H    2.23615800  -1.13566000  -1.03632900
H    2.90265700  -1.57798300   0.53974100
H    3.00111700   0.85692500   1.17873600
H    2.34483900   1.30429400  -0.40687300
H    4.34273400   0.27823300  -1.55685100
H    5.00470600  -0.24272300   0.01472000
H    6.97733700   1.45663100   0.51092300
H    7.07970100   2.72967500  -0.76950300
H    6.93149500   0.96803100  -1.21736400