18

O    1.97472500  -0.20416500  -1.27965300
C    2.35425800   0.07694600   0.02312300
C    3.04775000   1.44461100  -0.06868400
C    2.20173900   2.64533100  -0.50640800
C    2.93372600   3.84363600   0.10875300
C    3.47455100   3.28421800   1.42714100
N    3.63663700   1.88314900   1.15878600
H    1.40884300  -0.98198700  -1.30589100
H    3.06127400  -0.66788600   0.43949100
H    1.49767300   0.16224900   0.71948300
H    3.89937400   1.29917100  -0.77804700
H    1.18708800   2.54073100  -0.08933700
H    2.10818200   2.69617400  -1.59662100
H    3.77268400   4.16201000  -0.52801800
H    2.28579500   4.71373500   0.26752400
H    4.41764700   3.71248500   1.80606900
H    2.74338600   3.37157900   2.26101800
H    4.14260800   1.25336800   1.78858100