10

O    1.03804100   0.10829300   0.19618300
C    2.20179900  -0.02150700   0.07861200
O    3.00769300   1.17582200  -0.00646000
C    4.27851900   1.11961900  -0.13485700
C    4.95580800  -0.13184200  -0.19972200
N    4.29414500  -1.29181800  -0.12969200
C    2.99201400  -1.26494600   0.00190800
H    4.78787900   2.09023500  -0.18910000
H    6.04486100  -0.15371600  -0.30945500
H    2.42905800  -2.20441000   0.06112500