13

N    1.05503300  -0.02930100   0.06701200
C    2.37770800  -0.00030700  -0.01019200
C    3.10777000   1.22696300  -0.08559700
C    4.47251700   1.15333900  -0.16310300
C    5.10078800  -0.12092400  -0.16571700
N    4.42749100  -1.27830700  -0.09470100
C    3.12387900  -1.24258400  -0.01947900
H    0.50143500   0.82510200   0.07584800
H    0.54531400  -0.90935600   0.12019800
H    2.58258000   2.18502300  -0.08074600
H    5.08209400   2.05638500  -0.22290900
H    6.19077300  -0.19607600  -0.22802800
H    2.58456100  -2.19671700   0.03863300