13

N    1.08895000  -0.12738900  -0.51308200
C    2.21149300  -0.02951700  -0.26569200
C    3.64036700   0.09580300   0.05352300
N    4.13809800  -1.08267600   0.72707900
C    4.81985200  -0.76909600   1.93366700
C    4.71783200   0.71719600   2.02760600
C    4.03928800   1.21051800   0.98718900
H    4.19159500   0.18235700  -0.91508000
H    3.97171100  -2.03405300   0.38573200
H    5.85811400  -1.17375600   1.90270600
H    4.35083500  -1.32173900   2.78136300
H    5.14606400   1.28634100   2.85260800
H    3.80015000   2.25277300   0.77808700