17

C    0.94391800   0.09107900   0.12762700
C    2.40731400   0.08110200  -0.04217100
C    3.23378400  -1.05885100  -0.20333000
C    2.85205900  -2.48444500  -0.24368600
O    4.48119000  -0.74063500  -0.32769500
C    4.68453400   0.69726700  -0.26700100
C    3.28568100   1.28286000  -0.07253000
H    0.50339700  -0.91280700   0.10579800
H    0.47702000   0.70539000  -0.66116200
H    0.67998700   0.57682300   1.08296300
H    3.73691800  -3.11794200  -0.37201000
H    2.14941400  -2.65910900  -1.07365500
H    2.33185900  -2.75899400   0.68727100
H    5.17421000   0.98078100  -1.20736500
H    5.37728400   0.87721600   0.56496100
H    2.98600000   1.96627700  -0.88631800
H    3.18614400   1.86434000   0.86081200