17

C    0.41987600  -0.83074100   1.19629500
C    1.47293100  -1.18010100   0.19462800
C    1.71813200  -2.61652200  -0.14598300
C    1.81439500  -0.14127500  -0.82749500
O    3.24951200  -0.12854800  -1.22147500
C    4.19713900  -0.27706500  -0.40704600
O    4.08465400  -0.54733900   0.82470700
H    0.51218900   0.19863900   1.57383600
H    0.43392300  -1.52703500   2.04719700
H   -0.58629600  -0.91709500   0.74067700
H    3.13374200  -0.74708300   1.06420800
H    0.84764200  -3.01822600  -0.70038600
H    1.82329500  -3.23474100   0.75763100
H    2.59910400  -2.77365700  -0.78640600
H    1.60405600   0.88479600  -0.49376400
H    1.31806200  -0.31038000  -1.79554800
H    5.21438100  -0.16014000  -0.80524700