19

C    1.87108900  -0.77563900   0.85853300
C    2.75914400   0.22157100   0.12324600
C    2.46617600   1.66976200   0.29691600
C    1.09711800   2.07970800   0.67101700
C    3.51419700   2.58614400   0.05971300
C    3.41959500   3.98544000   0.14253000
C    4.50907400   4.79284900  -0.10738000
H    2.20945100  -1.79603500   0.63802600
H    0.81838100  -0.70630100   0.55242400
H    1.92863200  -0.63359700   1.94773000
H    2.66437300   0.06372900  -0.97508300
H    3.82674900   0.03818600   0.32710000
H    0.37072300   1.58773400   0.00268300
H    0.91820900   3.15881500   0.66921700
H    0.87520500   1.68084800   1.67703300
H    4.48800500   2.16265700  -0.21022400
H    2.47192500   4.45817800   0.41236700
H    5.48047600   4.36851400  -0.37836900
H    4.43254900   5.88077400  -0.04256200