11

C    0.92973900   0.09951500  -0.00634700
C    2.39021600   0.03416700  -0.00067200
N    3.28849200   0.93453400   0.00518100
N    4.53273800   0.53159400   0.00842900
C    4.71461500  -0.71919800   0.00537800
C    3.26291900  -1.32125700  -0.00157600
O    2.88983500  -2.42638600  -0.00595800
H    0.58451700   1.14042100   0.00121800
H    0.53711600  -0.43972200   0.87176900
H    0.54539200  -0.42329900  -0.89809800
H    5.66443900  -1.25935900   0.00718700