17

C    3.91477600  -0.82039900   1.32912300
N    3.65391100  -0.12072000   0.07304100
C    4.20761600   1.02766000  -0.33719300
S    3.16876200   2.04925100  -1.28086400
N    5.44916600   1.38412500  -0.03860900
C    6.47769000   0.39744500   0.30171300
C    5.93221300   2.75928400  -0.18387500
H    2.95314700  -1.13681000   1.75220900
H    4.39738400  -0.14215300   2.04258800
H    4.54365500  -1.70906800   1.18000800
H    2.84767100  -0.43173100  -0.46221700
H    6.17567600  -0.59978300  -0.03550400
H    6.68059700   0.38399600   1.38213200
H    7.39962300   0.67439400  -0.22628000
H    5.09674100   3.46808500  -0.14672400
H    6.47719300   2.87906400  -1.13227900
H    6.61445500   2.97488700   0.64880800