16

C    0.84976500  -0.02906800  -0.33186700
C    2.01195400   0.34624900   0.53297100
O    2.23240700  -0.11732400   1.62236500
C    2.97849100   1.41538000  -0.00052500
C    2.69878500   2.86822200   0.50035400
N    4.03843100   2.87249600   1.03405500
C    4.28778600   1.48753500   0.81378600
H    1.22145400  -0.61122600  -1.19105700
H    0.35493200   0.86587300  -0.73911100
H    0.13665500  -0.63793700   0.23545400
H    3.12692700   1.37756400  -1.08844000
H    1.94223900   2.94930600   1.30490500
H    2.52053400   3.67191600  -0.23256800
H    4.66618900   3.64559600   1.27894700
H    5.27539500   1.24848700   0.38878500
H    4.14164200   0.89683100   1.75591400