15

C    1.02007500   0.07578900   0.06856100
C    2.47543400   0.03046300   0.01821200
C    3.68269300  -0.03426700  -0.02380300
C    5.14395600  -0.08210400  -0.07176500
C    5.62672600   1.32339100  -0.21044000
N    6.38347900   1.86721900   0.65027200
N    6.86237100   3.06581400   0.81392600
H    0.66160400   1.11483000   0.04309000
H    0.65351600  -0.39285400   0.99302200
H    0.58756300  -0.46049000  -0.78801600
H    5.48854000  -0.64573400  -0.95755200
H    5.57949000  -0.55289600   0.82213900
H    5.29358900   1.92265900  -1.07479800
H    6.37812800   3.67373500   1.48098000
H    7.87709200   3.17168000   0.73069000