10

C    1.04563000  -0.05254200   0.06199800
C    2.42530300  -0.00325200  -0.13551300
O    3.14735500  -1.03620300  -0.40895800
C    4.50907400  -0.55504700  -0.53350500
N    4.64911300   0.67804200  -0.35560800
C    3.36175300   1.20562000  -0.08121700
O    3.03945700   2.32402300   0.14753000
H    0.51684000   0.87882000   0.29015100
H    0.50175700  -1.00012900  -0.00913200
H    5.22704800  -1.34446200  -0.76650500