11

C    2.83045800  -1.06298100   0.38342800
C    2.22506400   0.14718900   0.09966800
C    2.97376600   1.34377200   0.02127800
N    2.35014700   2.51172600  -0.25844300
S    3.42288100   3.69705700  -0.28656400
C    4.76280800   2.58499600   0.09203000
N    4.33952100   1.38346000   0.21991100
H    2.24005100  -1.98104200   0.44117200
H    3.91003800  -1.11669100   0.55400000
H    1.14840800   0.22160600  -0.07376500
H    5.80185400   2.91202200   0.19580300