17

C    1.41594800   2.07426800  -0.95555500
C    2.62046100   1.32760000  -0.43920400
O    3.70657400   2.24854500  -0.28663300
C    4.89312600   1.72556300   0.20482600
C    5.95791800   2.80533200  -0.03945100
N    5.34733300   4.06998400  -0.07333200
H    0.57782100   1.37604100  -1.08500600
H    1.62676100   2.53689900  -1.93016800
H    1.10137800   2.85427700  -0.24774400
H    2.93293200   0.53199900  -1.13836500
H    2.41512100   0.86001500   0.53921100
H    5.18375700   0.78616200  -0.29639800
H    4.83427200   1.52390000   1.29220000
H    6.40888700   2.65092700  -1.05405100
H    6.81332600   2.79186100   0.65612000
H    4.33462200   4.06200000  -0.28338700
H    5.86276800   4.94560400   0.04041000