18

O    0.94169300   2.21965800  -0.66954600
C    2.31694900   2.38793700  -0.62804100
C    2.80125000   1.32450900   0.36052800
N    4.19417200   1.39271600   0.64222300
C    5.12564800   2.49817500   0.77277200
C    6.21921300   1.49414000   1.19524200
C    5.16390400   0.38222200   1.01436600
H    0.55350300   2.78553200  -1.34383200
H    2.61775600   3.39124200  -0.26505100
H    2.80708400   2.22235700  -1.60679300
H    2.55691000   0.30896700   0.01329300
H    2.25406900   1.47350400   1.31651000
H    4.78583800   3.23581000   1.52155700
H    5.26937900   3.02931100  -0.18518900
H    7.07554200   1.43203200   0.51447000
H    6.57651800   1.61888800   2.22377000
H    5.32413400  -0.34550700   0.19857600
H    4.84730900  -0.17996400   1.91108200