17

C    2.94115400   3.89965900   1.31573900
O    4.19736100   3.29779300   1.05165500
C    4.27174500   2.61792800  -0.17276400
C    5.60419000   1.87286800  -0.23565000
C    6.81416000   2.76893600  -0.09406500
N    6.76747000   3.79268400   0.70726900
N    7.95119600   2.38331600  -0.68392100
H    3.01229200   4.38599200   2.29513000
H    2.14728700   3.13619300   1.34999900
H    2.69097000   4.65180500   0.54864700
H    4.17318000   3.31872900  -1.02450300
H    3.46335200   1.87121500  -0.26331500
H    5.67891200   1.29615800  -1.16797300
H    5.66787000   1.15034300   0.59615100
H    5.85465500   3.96942900   1.16445400
H    7.57519500   4.39213100   0.85990900
H    7.99782800   2.38275200  -1.71008300