19

C    0.97740800   0.00709400  -0.13938900
C    2.48566700   0.00858900   0.05427500
C    3.03779800   1.15989900   0.91285000
C    4.42064400   0.66156900   1.34509900
C    4.30491500  -0.80621500   1.39352500
C    5.27307700  -1.67490500   1.94732800
C    3.03926800  -1.23268000   0.78110300
H    0.65346200  -0.85130800  -0.74477900
H    0.65576300   0.92004300  -0.65922700
H    0.45139900  -0.03464400   0.82729900
H    2.97341800   0.04647100  -0.93634000
H    2.40542400   1.30858300   1.80429400
H    3.08115800   2.11672900   0.37789100
H    5.16604600   0.82834300   0.52852800
H    4.88075600   1.11265900   2.23912100
H    5.07820900  -2.74826900   2.03354000
H    6.23435900  -1.28925500   2.30076600
H    3.08958500  -2.18136400   0.22300500
H    2.39470100  -1.45458900   1.67019300