19

C    0.54945400  -0.17396600  -1.00244000
C    1.95353300  -0.52894600  -0.52646700
C    2.70585300   0.71729700  -0.02281200
C    4.11962000   0.33604100   0.45130200
C    4.80262800   1.59720700   0.93223200
C    6.25412700   1.38826400   1.44923400
O    6.86257600   0.38062700   1.50129900
H    0.03514700  -1.08022900  -1.35567100
H    0.57337900   0.54358600  -1.83591700
H   -0.05545300   0.25988400  -0.19249800
H    2.52871900  -0.99002000  -1.34526800
H    1.90462300  -1.27221800   0.28533200
H    2.14026500   1.17926000   0.80297800
H    2.76545900   1.46303300  -0.83246800
H    4.68691700  -0.11663600  -0.37562400
H    4.05951200  -0.40237600   1.26474200
H    4.30905400   2.08849000   1.79168900
H    4.93439600   2.37371700   0.15534700
H    6.73525700   2.34429300   1.80348900