16

C    0.93223500  -0.05518200   0.49406000
C    2.30846500   0.07692400  -0.13811900
C    3.11860300   1.24458600   0.35056100
C    4.05255100  -0.16706600   1.33260200
O    5.34085800  -0.01360800   1.39109800
C    3.33372700  -1.00803300   0.32355100
H    0.44392900  -0.97917900   0.15515900
H    0.29259300   0.79121500   0.20783800
H    0.98694100  -0.08360800   1.59396000
H    2.24164100   0.08345100  -1.23830300
H    2.72479900   1.94780500   1.09448300
H    3.92477000   1.63553400  -0.28164500
H    3.57451300   0.04436200   2.29945800
H    5.81182000  -0.38183200   0.62479800
H    4.00376000  -1.33460400  -0.48536400
H    2.85568700  -1.89070600   0.77959100