16

C    1.68133400   0.25112500  -0.46561800
O    3.01406900   0.49028200   0.03067300
C    3.67983700   1.56569300  -0.18246500
C    3.18300100   2.67834100  -0.91589800
C    5.02804600   1.57874900   0.38654200
C    6.21719300   1.77737200  -0.54962800
N    5.75051900   2.83250700   0.29046400
H    1.42027800  -0.75136500  -0.11601100
H    1.68389300   0.28209700  -1.56319400
H    0.99131700   0.99244700  -0.04149600
H    2.19734100   2.68080300  -1.38404100
H    3.82275100   3.56316400  -0.97126100
H    5.17521900   0.88814400   1.22317500
H    6.04394500   1.89647800  -1.62391900
H    7.11261600   1.20634300  -0.28202200
H    6.33185900   2.99759200   1.11168200