11

O    1.13456000   0.01159300   0.53859800
C    2.22791700  -0.11878200   0.18951300
C    3.17524100  -1.25799200  -0.09098700
C    4.46377100  -0.63730200  -0.51865300
C    4.51860900   0.70306100  -0.56565000
C    3.27385200   1.34659800  -0.17982800
O    2.81580000   2.40647800  -0.05612500
H    2.72141700  -1.90243200  -0.86515100
H    3.26545300  -1.86656500   0.82665000
H    5.31726400  -1.26877300  -0.77924400
H    5.37100000   1.32198700  -0.85324200