14

C    1.06526600  -0.00513400  -0.16913100
N    2.49571500  -0.06303200   0.07931500
C    3.25388300  -1.14982800   0.19338500
C    4.58924000  -0.81181900   0.43645500
C    4.71991400   0.66218000   0.48792900
C    3.30905900   1.15010400   0.24507900
O    2.84315500   2.23470900   0.18027200
H    0.78268600   1.05085700  -0.25492700
H    0.52605400  -0.46842900   0.66916700
H    0.83000200  -0.53603200  -1.10165100
H    2.83057800  -2.15210900   0.09939900
H    5.39694400  -1.53281100   0.56556300
H    5.09934600   1.03060500   1.45797900
H    5.41007100   1.06416800  -0.27538600