14

C    0.93019700  -0.05699000   0.02985100
O    2.35231100   0.00214100   0.02885600
C    2.91727700   1.23111900   0.00263200
C    4.34492500   1.25465200   0.00255500
C    5.57781200   1.32402900   0.00117900
C    7.01124600   1.38437700  -0.00046500
H    0.66711600  -1.11875600   0.05259900
H    0.52513200   0.40909100  -0.88266500
H    0.52478000   0.44783900   0.92135500
H    2.57659200   1.88770600   0.85182300
H    2.57759800   1.85030300  -0.87467000
H    7.37376900   2.42150300  -0.01114000
H    7.39674600   0.84179400  -0.88213100
H    7.39930900   0.85757800   0.88938100