12

C    1.03536800   0.04278500  -0.08249300
C    2.51287800  -0.03469200   0.00371400
C    3.23488500  -1.33496300  -0.05226200
N    3.17168100   1.08484000   0.02754700
O    4.34121200   1.23789500   0.54267100
H    0.67158100   1.07235600  -0.17101000
H    0.62026200  -0.42120500   0.82863300
H    0.68742600  -0.56522900  -0.93248000
H    2.62736900  -2.10366600   0.44588400
H    4.23707100  -1.26968600   0.39011100
H    3.33229200  -1.63509800  -1.11033700
H    4.79347300   1.96199400   0.06268100