16

C    3.07430900  -1.04569600  -0.68176200
C    2.65899700  -0.05772500   0.39801400
C    3.01062600   1.40708200   0.13385800
C    2.65201300   2.41385100   1.21315100
C    4.61137900   1.42217600   0.04368800
O    5.14747800   1.71740900  -0.95965300
H    2.65571700  -2.03753500  -0.46528600
H    4.16872100  -1.17088400  -0.73360200
H    2.71237600  -0.73790900  -1.67361100
H    3.02070100  -0.35983300   1.39426400
H    1.55348300  -0.02408700   0.46637000
H    2.67190300   1.72990700  -0.86184600
H    3.00129100   2.10499000   2.20855300
H    1.55026300   2.46788600   1.23212700
H    3.01276800   3.42725000   0.98686800
H    5.14894700   1.14112300   0.98269500