19

C    2.07661400  -0.32902200  -1.47842900
C    2.47779000   0.13119300  -0.08639400
C    3.20780000   1.50693300  -0.14254100
C    2.47295600   2.73115000  -0.67078800
C    3.07203500   3.87572100   0.15321900
C    3.40892200   3.18120100   1.46267700
O    3.68321800   1.83192000   1.12066700
H    1.53941700  -1.28416600  -1.39091300
H    2.95080800  -0.49750600  -2.12359300
H    1.40281800   0.38390200  -1.97454300
H    3.13722300  -0.59629500   0.40726500
H    1.59882500   0.28524500   0.56097800
H    4.15021500   1.27850900  -0.71123200
H    1.39438700   2.61239400  -0.47382400
H    2.60123800   2.85775500  -1.75258100
H    3.99037100   4.26848100  -0.30824100
H    2.38021400   4.71417600   0.29819500
H    4.26569400   3.54112400   2.05385200
H    2.54803400   3.11551100   2.16695800