15

C    0.90234500   0.00287500  -0.24479400
C    2.27753200   0.00863900   0.03561100
C    2.97647000   1.25605700   0.17914800
C    4.31044200   1.26779400   0.45164800
C    5.07768400   0.02038200   0.60759600
C    4.32087500  -1.23342100   0.45192200
C    2.98685100  -1.23287100   0.17942400
H    0.35475800  -0.93631600  -0.35713700
H    0.34694500   0.93743900  -0.35735500
H    2.42416300   2.19114700   0.06694500
H    4.84156600   2.21696000   0.56081100
H    5.94450100   0.02392300  -0.08926300
H    5.60084000   0.02267300   1.58910000
H    4.85989700  -2.17810000   0.56129300
H    2.44236300  -2.17256100   0.06742900