15

C    1.61753700  -0.11872500  -0.08877100
C    0.75262300  -1.17551300   0.59594800
O   -0.46707900  -1.43512300  -0.13532900
C   -1.41481000  -0.57692100  -0.20412000
C   -1.35159300   0.77244000   0.20204600
C   -0.06888200   1.51002100   0.39591900
O    0.87649500   0.99656600  -0.49241100
H    2.08430800  -0.51976800  -0.99742600
H    2.41746300   0.14651000   0.62789100
H    1.27059700  -2.13973300   0.64156700
H    0.45618500  -0.88231300   1.61383400
H   -2.33687300  -0.99010000  -0.63042500
H   -2.30514600   1.30948600   0.23519600
H    0.25619500   1.51682800   1.45756700
H   -0.23341100   2.56681600   0.12935300