16

C    0.60646400   0.04040300  -0.06337000
C    0.36547100  -0.22314900   1.41116100
C   -0.41021100   0.72653000   2.22033400
O   -0.97522500  -0.45816300   1.70365700
N    1.88424100   0.60595500  -0.33355000
C    3.26821100   0.33956600  -0.14450800
C    2.73413700   0.95061700  -1.41884900
H    0.56691200  -0.92191500  -0.62497300
H   -0.16781500   0.68590300  -0.50772500
H    1.09200800  -0.89251000   1.89255300
H   -0.76755100   1.66076200   1.77042300
H   -0.25875000   0.74788900   3.30464800
H    3.54742100  -0.72013500  -0.08967600
H    3.79260200   1.00310000   0.55532400
H    2.89927100   2.02474300  -1.57403300
H    2.60631600   0.35589100  -2.33185700