13

C    1.03802900  -1.18802500  -0.25225800
S    2.47936500  -0.23401100   0.09529200
O    3.02372200  -0.49614600   1.38629600
O    3.23315600   0.10707800  -1.07523500
O    1.51379800   1.40553600   0.42390200
C    1.95074400   2.46887400  -0.10170200
C    1.34502100   3.70705700   0.20705500
H    0.57384700  -0.79374400  -1.16381500
H    0.38315400  -1.13445000   0.62613100
H    1.40394600  -2.21462800  -0.40642600
H    2.80623200   2.40618200  -0.79702100
H    0.50244300   3.74301400   0.90348000
H    1.72224500   4.62617800  -0.24744800