13

C    0.36867100  -0.94999900  -0.13426400
C    1.79466900  -0.58785300   0.15622900
O    1.96201200   0.86427300  -0.07213400
N    3.13703700   1.31202700   0.14187700
C    3.18962000   2.62567200  -0.08975200
C    4.42107500   3.26766200   0.10257800
N    5.43218800   3.82797700   0.25431400
H    0.25819900  -2.02992600   0.03880100
H    0.10290300  -0.74617100  -1.18003700
H   -0.32745700  -0.42728200   0.53505900
H    2.53425400  -1.06412200  -0.50780600
H    2.10543400  -0.74609100   1.20174100
H    2.30433500   3.19103200  -0.41901500