16

C    1.11219400  -0.15303500   0.33789000
C    2.54352000  -0.09403100  -0.16781800
N    3.17711600   1.17131100   0.06326900
C    4.58952300   1.36480200   0.21693200
C    5.05644500   2.75100400  -0.19339900
H    0.68623100  -1.13220700   0.08407600
H    0.48249100   0.61534900  -0.13428500
H    1.07107500  -0.03702000   1.42962400
H    2.57825900  -0.24770100  -1.27034400
H    3.19270800  -0.87770900   0.25724600
H    2.57439000   2.00085200   0.12317900
H    5.10114600   0.55069600  -0.32319200
H    4.79978200   1.18165400   1.29518500
H    4.88456800   2.92778700  -1.26402400
H    6.13452300   2.83271200  -0.00441100
H    4.55649900   3.53756900   0.39077200