20

C    0.99634400   0.07723000   0.43680700
N    2.22031700  -0.02881700  -0.30935300
C    2.78650600  -1.31751300  -0.63834000
C    2.68784900  -1.55224800  -2.16404900
C    3.30777100  -0.39082100  -2.93293700
C    2.69575200   0.93816100  -2.50439800
C    2.79422700   1.12081400  -0.97157700
H    0.93498700   1.05580300   0.92954900
H    0.92710300  -0.73496300   1.17140100
H    0.14384000  -0.01363200  -0.26490100
H    2.27374800  -2.09860400  -0.06447400
H    3.84991500  -1.29521800  -0.34183400
H    3.19247300  -2.50392200  -2.38194300
H    1.62729000  -1.67993700  -2.43418000
H    4.39809400  -0.37196600  -2.76965900
H    3.15637200  -0.53784100  -4.01223300
H    3.20609500   1.79330900  -2.96923800
H    1.63577700   0.99527800  -2.79978900
H    3.85771100   1.17233300  -0.67901300
H    2.28676900   2.03039500  -0.62879100