13

N    1.18912300  -0.13750000   0.60104800
C    2.37655100   0.04336200  -0.11451800
C    2.50526500  -0.75578300  -1.38325800
N    3.38765500  -0.37858600  -2.22725600
O    3.44256800  -1.13508100  -3.31014900
C    2.89578900   1.39681000  -0.10250100
C    3.34078700   2.51829300  -0.04885100
H    0.92135200   0.53333400   1.32026600
H    0.66894000  -1.01267400   0.55244600
H    3.15269700  -0.54354200   0.50552600
H    1.91451100  -1.67445300  -1.50682100
H    4.14109800  -0.75462900  -3.86363300
H    3.73448100   3.52169700  -0.01411500