15

C    1.55316500  -0.58315100  -0.25372300
C    2.76055300  -0.20973500   0.28265700
C    3.40564200   1.13078100   0.04174600
C    2.78171000   1.52258900   1.35658700
C    1.58709500   2.19025500   1.46549000
C    4.85663300   1.13635400   0.00436800
C    6.06243200   1.14379400  -0.03073300
H    1.17775700  -1.60032600  -0.11229500
H    0.95254400   0.10061500  -0.86081100
H    3.31705400  -0.90899700   0.91553800
H    2.95604400   1.66342000  -0.80846400
H    3.34364900   1.25703000   2.25818700
H    0.98101400   2.44016000   0.58967300
H    1.22832000   2.52290900   2.44334700
H    7.13902200   1.15445700  -0.06781900