15

N    0.94877900   0.25640200  -0.23304500
C    2.26945700   0.25749800  -0.19937300
C    3.06086500   1.01300100   0.83175000
C    4.13520000  -0.02603400   1.16624200
C    3.34215200  -1.28213200   0.95461600
O    3.80918600  -2.35911300   0.37180300
H    0.43742700  -0.16255000  -1.00427100
H    0.39680300   0.62030400   0.53859300
H    2.76649600  -0.02897300  -1.13317000
H    2.43331400   1.23699800   1.70795600
H    3.44804500   1.96844100   0.44469200
H    4.97031200   0.02579800   0.44862100
H    4.55900800   0.05831300   2.17968500
H    2.49683200  -1.50322900   1.61674600
H    4.65652800  -2.20781400  -0.07170900