18

C    0.79877800   0.07762700  -0.04486200
C    2.20039300  -0.24196900   0.31963200
C    3.14964500  -0.80909400  -0.69875500
C    3.60243800   0.38479000  -1.48348500
O    3.04581700   0.82405500  -2.46729500
C    4.80758200   1.19154900  -0.95968800
N    4.86378300   2.40900100  -1.81131500
H    0.34130600   0.78368700   0.66134200
H    0.17614200  -0.83839700  -0.03511300
H    0.72096700   0.48964400  -1.06508300
H    2.54386300  -0.14062000   1.35292300
H    2.64491800  -1.50410500  -1.38854300
H    4.00357100  -1.31395600  -0.22387200
H    4.10105700   2.21276300  -2.52490500
H    5.73213000   0.60818600  -1.07208000
H    4.68982300   1.45753900   0.09847000
H    5.75954300   2.54726600  -2.28940500
H    4.63246000   3.27300800  -1.31029000