20

C    2.03825900   2.86715200   1.69859800
C    2.59570000   2.13586900   0.47634200
N    3.69092100   1.26263000   0.82267300
C    5.00371100   1.38941800   0.36632200
C    5.97799900   2.26253800   1.32234000
C    7.07319300   1.23029000   1.02247400
C    5.99834200   0.23200000   0.54771000
H    1.19095300   3.48725900   1.37734400
H    2.79667200   3.52290600   2.14750500
H    1.67042500   2.16456200   2.46027000
H    2.94700200   2.83067400  -0.29818900
H    1.80987100   1.49902900   0.02879600
H    3.51560300   0.57492200   1.56168600
H    5.00647600   1.84590800  -0.63454100
H    5.62276500   2.23332400   2.36133300
H    6.09379000   3.30179800   0.98941500
H    7.73002000   1.55303900   0.20392800
H    7.69139900   0.92378100   1.87467800
H    6.20006700  -0.35491100  -0.35811100
H    5.68024700  -0.44914100   1.35187800