13

C    1.11246200  -0.03394600   0.30473800
C    2.45070200   0.03735300  -0.15495400
N    3.14022200   1.13482800  -0.43308200
C    4.45762200   0.80899300  -0.87118500
N    5.27510500   1.69766300  -1.18640700
C    4.46932700  -0.70965500  -0.81458600
O    3.14669100  -1.04791500  -0.35022500
H    0.67457400  -1.01573600   0.49199100
H    0.53451900   0.87676100   0.46706100
H    2.80662300   2.09433900  -0.35796300
H    6.18609000   1.34524300  -1.48435200
H    4.62100300  -1.17596800  -1.79847000
H    5.20078400  -1.10754200  -0.09678400