16

C   -1.80397800   0.86025400   0.36535500
C   -1.21844500  -0.31174600  -0.35346500
C   -0.35970400  -1.27196300   0.48629500
N    0.76734500  -0.44673900   0.90558900
C    1.85915900  -0.15946400   0.07037500
C    0.71640700   0.88425000   0.41833300
C   -0.51213200   1.02964900  -0.40518200
H   -2.69449800   1.32212600  -0.06444600
H   -1.76335400   0.89265700   1.45896900
H   -1.72533200  -0.72681100  -1.22655400
H   -0.87945700  -1.61450300   1.39619300
H    0.00457300  -2.15124600  -0.06237200
H    2.79883800   0.14087800   0.54646100
H    1.92423000  -0.71186900  -0.87379200
H    1.11675900   1.69811800   1.03632800
H   -0.47576000   1.67305900  -1.28762800