21

C    2.20781100  -0.52676400  -1.51918800
C    2.37410500   0.05578900  -0.09483600
C    3.19357600   1.28808100  -0.20786600
C    2.63758400   2.62632600  -0.57591300
C    3.18519200   3.35857400   0.69200500
C    3.43117400   2.12580500   1.50710300
C    4.73474600   1.78266000   2.11573400
H    1.60931400  -1.44524400  -1.44794000
H    3.17703200  -0.78393200  -1.96826400
H    1.68333100   0.17498000  -2.18258500
H    2.87599300  -0.68529500   0.54483800
H    1.38350500   0.27874400   0.32947000
H    4.25313000   1.13615300  -0.46021100
H    1.54036700   2.62711400  -0.61140000
H    3.05004800   3.04170300  -1.50695200
H    4.11118000   3.90874700   0.48095900
H    2.43511100   4.02981500   1.13728300
H    2.54661800   1.71061100   2.00929300
H    5.59308900   2.10902300   1.51290900
H    4.81466400   0.71617400   2.36694400
H    4.77637400   2.33613700   3.07636500