13

C    0.94694300   0.02817600  -0.01187100
C    2.41706900   0.06563500   0.00113800
C    3.27845600   1.16348500   0.00249400
N    4.51592800   0.63732300   0.01318700
O    5.67315200   1.23390500   0.01940600
N    4.57678400  -0.72592900   0.01831500
C    3.33590700  -1.09394500   0.01204000
H    0.50091800   1.02888800   0.00640100
H    0.57849700  -0.55378500   0.85066300
H    0.59643400  -0.50969400  -0.91060600
H    3.08660500   2.23542600  -0.00253000
H    5.54453800   2.19982700   0.01330000
H    3.06786500  -2.15164400   0.01448400