11

N    2.52524000  -0.74821900   1.17215800
C    2.28324800  -0.06373000   0.08042600
O    1.43417000  -0.29049100  -0.76498100
C    3.12576300   1.25245100  -0.21733800
C    4.50372800   1.03216000   0.09365900
C    5.67517000   0.82916100   0.35352200
H    3.27875500  -0.47188400   1.79744400
H    1.96832500  -1.56955400   1.40117400
H    2.63731100   1.99694200   0.43821200
H    2.95965600   1.53591400  -1.26598000
H    6.72138000   0.67426700   0.57220300