11

C    0.95066300   0.04253600   0.02444100
C    2.44914900  -0.04849500   0.00963200
C    3.20443700  -1.16048700   0.16955000
C    3.21844000   1.17164500  -0.19687500
O    2.76366900   2.28658900  -0.36337300
H    0.60476400   0.70724500   0.82990600
H    0.52210600  -0.95365600   0.18923500
H    0.57053800   0.43046000  -0.93226100
H    2.72110400  -2.12904100   0.33102900
H    4.29757200  -1.14999400   0.14665700
H    4.33910700   1.13754900  -0.21353100