19

C    0.95438200  -0.21351400  -0.00282200
C    2.48661100  -0.10635300   0.05715900
C    2.91615600   1.32556000   0.14157100
O    2.63810900   2.02038000   1.22905000
C    4.91095800   1.29060000   0.08265000
C    5.32524400   2.71617600  -0.05845200
O    5.25660700   0.62169200   1.16697300
H    0.67106400  -1.27090500  -0.08687100
H    0.54729400   0.31787900  -0.87438300
H    0.47932300   0.19301400   0.90135200
H    2.92809500  -0.56023900  -0.84154900
H    2.88442800  -0.65761900   0.92564900
H    2.83722100   1.95187000  -0.75816200
H    2.43785000   1.44382000   1.98318200
H    4.92956100   0.64503100  -0.80530300
H    5.01880300   3.31599700   0.81165200
H    4.91200400   3.16740100  -0.96886800
H    6.42549700   2.74503200  -0.13883600
H    5.51397900   1.21201000   1.89214700