15

O    1.14889600   0.02754100   0.07588200
C    2.30884800   0.01295400   0.12012600
C    3.52409400   1.05806300   0.02413300
C    4.10111800   0.02431800  -0.97140300
C    3.49980000  -1.05263200  -0.03801000
C    4.19878800  -0.81793600   1.29920100
C    4.21656700   0.72906400   1.34479400
H    3.24668800   2.08517600  -0.24412100
H    5.19764000   0.01398000  -1.04952700
H    3.64476200   0.05892400  -1.96892100
H    3.19884000  -2.05548200  -0.36601900
H    3.68446700  -1.27807100   2.15378700
H    5.20229900  -1.27286800   1.24009600
H    5.23025700   1.16360000   1.31213600
H    3.71217500   1.14969800   2.22527400