15

C    0.50472000  -0.56003200  -0.21881400
C    2.00093600  -0.45085400  -0.27697300
C    2.82227100  -1.49707900  -0.45994800
N    2.61133600   0.82865300  -0.19734200
C    2.12924400   2.02092200   0.17400900
N    1.02344200   2.17709800   0.88629300
S    3.03125800   3.39024600  -0.36989000
H    0.01019300   0.20174300  -0.83844500
H    0.11381100  -0.50006300   0.81052000
H    0.20727900  -1.54363200  -0.60106400
H    2.41482900  -2.50377300  -0.55826000
H    3.90837000  -1.38735200  -0.51480700
H    3.58090800   0.86334600  -0.50996300
H    0.53989200   1.39788000   1.31893400
H    0.64596200   3.10914500   1.02386200