11

C    0.96395400  -0.01684700  -0.00181800
C    2.39454800   0.05256800  -0.03778700
C    3.63196200   0.10145600  -0.06488200
C    5.05299200   0.08451300  -0.08914400
O    5.77729500   1.22181900  -0.22866300
H    0.50505600   0.96866800  -0.16302200
H    0.64738900  -0.42119600   0.97750900
H    0.61140200  -0.73212200  -0.76640500
H    5.36003000  -0.67239100  -0.86629000
H    5.39264500  -0.48562400   0.82198900
H    5.23367400   2.01802500  -0.31063600