16

C    1.04999300  -0.12920900   0.05669900
C    2.51411000   0.07966000   0.01948200
C    3.20136000   1.24280500   0.35278800
C    4.67745700   1.17890200   0.11654300
C    4.85610800  -0.26326500  -0.31855200
N    4.42107900  -1.22654200   0.61154200
C    3.47093900  -0.92012200  -0.45514400
H    0.80506300  -0.95197600   0.74947600
H    0.69123300  -0.44858400  -0.93570200
H    0.50733400   0.77098900   0.36794900
H    2.69066800   2.16677200   0.63938900
H    4.96908700   1.91095400  -0.65526400
H    5.27010100   1.41984900   1.01455000
H    5.62675300  -0.57498100  -1.03286000
H    4.20989600  -0.95248000   1.57643300
H    3.23357900  -1.70675200  -1.17503600