15

C    0.75904500   1.33187200  -0.05845300
C   -0.77685800   1.20605100   0.18229900
C   -1.05708300  -0.21600500  -0.20863600
N   -0.66089500  -1.19395500   0.71209000
C    0.37075100  -1.02189100  -0.21913800
C    1.44768700  -0.04950900   0.16593400
H    0.92477500   1.63908200  -1.10007700
H    1.19513700   2.09593800   0.60012300
H   -1.35492300   1.91789800  -0.41886400
H   -1.02701900   1.38303700   1.24245200
H   -1.68272600  -0.51712100  -1.05693700
H   -0.49560400  -0.91378500   1.68546300
H    0.42680600  -1.70776600  -1.07245400
H    1.74030100  -0.17887000   1.22209400
H    2.34907600  -0.17268800  -0.44611600