17

C    1.22926800   0.21017400   0.21438800
C    2.64956600   0.03028600   0.06181000
C    3.86627800  -0.15200700  -0.07935700
C    5.29590400  -0.19492000  -0.22128600
C    5.43829600   1.31840300  -0.07190600
C    5.25498400   2.04905100   1.28391900
C    6.62063200   1.86253000   0.80717400
H    1.01565600   1.29124000   0.30133000
H    0.86085300  -0.28494800   1.12455600
H    0.69201500  -0.16188900  -0.67125200
H    5.63565300  -0.55564300  -1.20061800
H    5.78728600  -0.75557700   0.58575000
H    5.19200100   1.89088900  -0.96896100
H    4.91017100   1.42480200   2.11331900
H    4.78979000   3.03442300   1.21211000
H    7.14592500   2.68837500   0.31909800
H    7.25409400   1.09978500   1.26491400