19

C    0.90166500  -0.05074800   0.04314000
C    2.38381200  -0.07396400   0.00196400
C    3.04255200  -1.39304500   0.10936600
C    3.10930400   1.14750400  -0.10095400
C    2.44471700   2.44773300   0.17567700
C    4.54650700   1.23240400  -0.47176400
O    5.05209500   0.08163000  -1.03760500
H    0.59614000  -0.08206200   1.10848000
H    0.48969100  -0.96217100  -0.41311000
H    0.44614100   0.83646400  -0.41159200
H    3.24115700  -1.74234400  -0.92378000
H    2.37722200  -2.12385300   0.58736000
H    4.02361700  -1.35886700   0.59625300
H    1.70553200   2.38935500   0.98575000
H    1.90373700   2.76289100  -0.73768800
H    3.17550500   3.23618400   0.40096800
H    5.05602000   1.52108000   0.48148600
H    4.65561200   2.12435500  -1.12426500
H    5.97415300   0.20916000  -1.28360300