17

C    1.34982000   2.52306000   0.34427200
C    2.64332800   1.87547800   0.63993300
N    3.66992200   2.04356300  -0.09767100
N    4.86344300   1.53405700   0.04874300
C    6.11202300   2.20504300   0.43706500
C    6.88457000   1.07377500  -0.27836100
C    5.53090200   0.50068300  -0.75540600
H    0.57681900   1.74627400   0.23147100
H    1.39838100   3.14157600  -0.55921400
H    1.04921400   3.13632500   1.20864700
H    2.72923100   1.22464500   1.52585200
H    6.21777800   2.28753200   1.52968100
H    6.18452000   3.20581000  -0.01628600
H    7.54481600   1.41256000  -1.08432400
H    7.43933800   0.41243500   0.39649900
H    5.30258500   0.61920700  -1.82598600
H    5.26167300  -0.51660300  -0.43221600