16

C    1.76030900  -0.00017400  -0.50332100
C    0.83480600   0.81432200   0.33117200
C    0.83471300  -0.81440400   0.33132400
C   -0.59924000  -1.02675900  -0.13675700
C   -0.87133000  -0.00009200  -1.25929000
C   -0.59912100   1.02675600  -0.13695000
N   -1.17371300   0.00011800   0.77939500
H    1.67265700  -0.00026800  -1.59021600
H    2.78873900  -0.00019700  -0.13152600
H    1.18839500   1.35791800   1.20920500
H    1.18823500  -1.35787600   1.20946000
H   -1.02544400  -2.03458000  -0.11386800
H   -1.92864900  -0.00005800  -1.54808500
H   -0.23818200  -0.00021300  -2.15085900
H   -1.02520900   2.03463000  -0.11425300
H   -1.19390600   0.00021600   1.80760000