15

N    1.10720100  -0.05285900   0.29141800
N    2.36541500   0.11762400   0.06427200
C    2.98600700   1.23573800  -0.11668100
C    4.32686700   1.32224300  -0.77065300
C    4.64345200   2.79087400  -0.67524000
C    3.67474200   3.47612600  -0.06530300
C    2.52754400   2.59041700   0.34491500
H    0.83083900  -0.90876300   0.77373900
H    0.39427200   0.49109500  -0.20300300
H    4.29217000   0.93184000  -1.80465100
H    5.04199700   0.67037900  -0.23513300
H    5.56954900   3.21277500  -1.06494700
H    3.67924400   4.54721200   0.13594500
H    2.31797100   2.59261600   1.43012200
H    1.56896400   2.84873300  -0.14893800