11

O    1.91933300  -0.93524300  -0.77875100
C    1.84901300   0.11733800  -0.23243800
C    3.02714100   0.98333800   0.19946100
C    4.40096700   0.38829200  -0.12824000
C    5.40545300   1.33245500   0.34658100
N    6.15823500   2.11592400   0.74176900
H    0.81988200   0.52088300  -0.00864100
H    2.85568400   1.14383300   1.28151200
H    2.83340600   1.95762700  -0.28965000
H    4.52150600   0.23777100  -1.21239600
H    4.54395500  -0.58257100   0.37132400