17

C    2.93429900  -1.15019800  -0.50980600
C    2.49948400   0.00148200   0.40105300
O    2.53473400  -0.31836300   1.76459700
C    3.47861700   1.14627100   0.28295000
O    4.24834100   1.32752800   1.27674800
C    3.57172500   2.05556400  -0.87481600
C    2.56498200   3.02022400  -0.33466800
H    2.91678300  -0.85646700  -1.56806400
H    2.22867000  -1.98493700  -0.39125400
H    3.94387800  -1.49803800  -0.24829700
H    1.50080600   0.36291300   0.09598400
H    2.23107400  -1.21599300   1.94008100
H    3.94320900   0.70341100   1.99170600
H    3.24772300   1.57709300  -1.80782200
H    4.57962700   2.48354800  -0.96417200
H    2.87560500   3.78537800   0.38041000
H    1.50984600   2.94142800  -0.60632000