12

O    3.05103500  -0.81481000  -0.79332000
C    2.35095800   0.01481900   0.06020800
C    3.19312500   1.27477500   0.24302500
C    3.30374100   2.11076000  -1.09910800
N    2.61206500   2.53406500   0.03896200
H    2.60337300  -1.66397200  -0.88071600
H    2.22279800  -0.39673400   1.08052400
H    1.35017300   0.30307800  -0.31602600
H    4.01065200   1.23011000   0.97211100
H    2.75430800   1.57540000  -1.88599600
H    4.16374500   2.70860200  -1.41896200
H    2.82348400   3.38293200   0.57554000