16

C    3.13864400  -1.26547100  -0.41734100
C    2.43630800   0.00746300   0.09253300
C    3.38236800   1.14911300   0.12792500
N    3.49434800   2.08321300  -0.88805100
C    2.94443400   2.86076800   0.16798500
C    3.73873100   3.58390000   1.07060800
C    4.38153400   4.22365900   1.88122500
H    2.42388800  -2.09810700  -0.40065800
H    3.99121000  -1.53718300   0.22050000
H    3.49744900  -1.14215400  -1.44874000
H    2.07730500  -0.16129600   1.12102200
H    1.56395900   0.25173200  -0.53328300
H    4.22827100   1.11067800   0.82544700
H    2.84926100   1.94248600  -1.67045000
H    1.87923200   3.11451800   0.09968800
H    4.95669600   4.80251400   2.58797800