20

C    1.01095500  -0.20126400   0.06381700
C    2.50816300  -0.08706400   0.37392500
C    3.03665600   1.27229500   0.00553500
O    2.64776100   2.31462500   0.73518300
C    4.94861200   1.20951800   0.09724900
C    5.37987000   2.60286200  -0.27297800
N    5.30845200   0.75993100   1.31950200
H    0.65131300  -1.20156500   0.33911900
H    0.81235100  -0.05284100  -1.00705700
H    0.42332400   0.53840100   0.62572500
H    3.06409100  -0.85451100  -0.18593900
H    2.69315300  -0.26993500   1.44685600
H    3.01423100   1.52939400  -1.06340300
H    2.36790600   2.04671800   1.62219800
H    5.04409600   0.44287500  -0.68405800
H    5.10909200   3.32783500   0.50714000
H    4.92281700   2.92381700  -1.21683200
H    6.47285800   2.61007500  -0.40350800
H    5.53975800   1.40580900   2.06924600
H    5.33932300  -0.23063300   1.53865800