15

C    2.87417800  -1.39652200  -0.91238600
C    2.42266500  -0.25617900  -0.05643000
O    1.49599900  -0.25388400   0.69312900
C    3.15029200   1.11938800  -0.16124900
C    4.64209200   0.96342000   0.26651700
C    4.96745300   0.56441600   1.67081600
O    5.42126700   1.24180500  -0.59133900
H    2.68707700  -1.12662000  -1.96433200
H    2.32008500  -2.30635500  -0.65466600
H    3.95772500  -1.55139900  -0.79763500
H    2.67830800   1.85452900   0.51002000
H    3.08521000   1.45867500  -1.20745600
H    4.64945000   1.38304800   2.33675100
H    6.04506100   0.39461700   1.77669000
H    4.39760700  -0.33341100   1.95378900