18

C    1.21229100   0.30376900   0.03792600
C    2.65037000  -0.02166800   0.15967300
C    3.02412400  -1.47468400   0.22157600
O    1.94477300  -2.25395500  -0.14869300
C    3.59964000   0.97945700   0.28973600
C    5.07618700   0.76619800   0.39915500
N    5.32307000   0.89646900  -1.01216000
H    1.01582100   1.38191100   0.04434100
H    0.64671100  -0.19230600   0.84373000
H    0.82358100  -0.15244900  -0.88907600
H    3.34668300  -1.65497100   1.27285400
H    3.92158000  -1.66585500  -0.40285000
H    2.14120700  -3.18651500  -0.01733500
H    3.26931200   2.02008700   0.22059300
H    5.38763000  -0.21554100   0.77434300
H    5.59275600   1.54783200   0.96719800
H    5.15812000   0.11831500  -1.64429500
H    5.40988100   1.81432600  -1.44104600