9

O    0.98886000  -0.05627300  -0.11680000
C    2.33149100   0.06667600  -0.00960300
C    2.81656800   1.40784900  -0.00922100
C    3.28795100   2.55136500  -0.00397700
C    3.80658300   3.80713600   0.00285400
N    4.25156800   4.88866600   0.00852800
H    0.71680500  -0.98632300  -0.11200700
H    2.91794200  -0.46532400  -0.81344700
H    2.77560200  -0.41405600   0.90956200