13

C    0.92995400  -0.03844900   0.15045600
C    2.39493800   0.12772600  -0.04679100
C    3.21393400   1.09482100   0.83706200
N    3.95188900  -0.03887200   1.40118300
C    3.35943100  -1.02041400   0.76981100
O    3.31911900  -2.20058400   0.63613300
H    0.54026300  -0.91688000  -0.38021700
H    0.44981900   0.85451400  -0.29615900
H    0.64188200  -0.07062700   1.21097800
H    2.74371300   0.04598600  -1.08831700
H    2.61712100   1.62771500   1.58944700
H    3.85168300   1.78979200   0.27442900
H    4.72305100  -0.09459900   2.06827200