14

O    1.91307200  -1.01064100   0.13402200
C    3.14858400  -0.41362200   0.05051900
C    3.00496700   1.04926100   0.09243800
C    4.06876000   1.93808800   0.02877000
C    3.85642900   3.32140300   0.07440400
N    4.92918900   4.10324300   0.00777300
O    4.60973200   5.36050000   0.05907800
H    1.99315300  -1.96940200   0.10735400
H    3.71299100  -0.65957700  -0.88165900
H    3.84952600  -0.69670500   0.87300900
H    1.97951300   1.43232500   0.17979500
H    5.10051000   1.58068300  -0.05867300
H    2.85566600   3.76675100   0.16132100
H    5.44081100   5.86636500   0.00533000