20

C    2.10169200  -0.55552600  -0.47637300
N    3.06622200  -0.02568200   0.47496300
C    3.82952400   1.04274200   0.36363900
C    3.76461100   2.07147000  -0.69661300
C    3.04209200   2.92489000   0.29750700
C    1.55431500   2.92895200   0.34346700
C    3.79989800   3.90393000   1.12449400
H    1.07834100  -0.43297800  -0.09364300
H    2.29688500  -1.62586100  -0.62553800
H    2.19256400  -0.04791900  -1.44196100
H    3.16367800  -0.55611400   1.33783600
H    4.57746100   1.16870900   1.15142600
H    3.17732300   1.80304900  -1.58187000
H    4.75476300   2.45213200  -0.97731200
H    1.10022800   2.11806200  -0.24053300
H    1.18923200   3.88171700  -0.08195800
H    1.17823200   2.88819800   1.37758100
H    4.86739400   3.65747100   1.21219300
H    3.36742500   4.01755600   2.12924200
H    3.73936900   4.89519700   0.63676300