17

C    1.11264600   0.11448600  -0.13585000
C    2.62733800  -0.02711500  -0.15456900
C    3.22449200  -0.96527200  -1.14719700
O    2.60574300  -1.39901700  -2.20905900
C    3.42773200   1.03489400  -0.83543200
C    2.97615700   1.78882600  -2.03040500
O    4.59167900   1.39903000  -0.36354100
H    0.82185700   0.91341300   0.55855300
H    0.65160900  -0.82032800   0.21299900
H    0.69290500   0.37596200  -1.11878900
H    3.02631900  -0.23466700   0.85113100
H    4.24962000  -1.33305000  -1.04708100
H    1.65223100  -1.22366800  -2.19841400
H    2.31749700   1.20038100  -2.68003200
H    3.84541000   2.13347400  -2.60574800
H    2.41777900   2.68023100  -1.69496100
H    4.79863800   1.02816800   0.50718000