10

O    0.96117100   0.03515100   0.00000000
C    2.19479200   0.09166100   0.00000000
C    2.93942800   1.25863100   0.00000000
C    3.60631800   2.27981100   0.00000000
C    4.39084500   3.50032700   0.00000000
C    3.56117700   4.70774100   0.00000000
N    2.90035600   5.65246600   0.00000000
H    2.67502800  -0.92249100   0.00000000
H    5.05797200   3.48362200  -0.88276000
H    5.05797200   3.48362200   0.88276000