17

C    1.13878100  -0.32320200  -0.00884800
C    2.69144700  -0.27337100   0.04096500
C    3.05565500   1.14417300  -0.19178700
S    5.12189900   1.29997000  -0.14048200
C    5.43235100   3.04633700  -0.43193900
O    5.41629000   0.96023300   1.23813300
O    5.51201700   0.51990100  -1.29898700
H    0.84846900  -1.36994400   0.16204700
H    0.74906000  -0.01338500  -0.98783300
H    0.68260900   0.29325700   0.77738700
H    3.10407600  -0.92507000  -0.74145100
H    3.03750000  -0.61791100   1.02518700
H    2.83196900   1.85813500   0.61479100
H    2.90085000   1.54151100  -1.20592600
H    5.03377200   3.29506700  -1.42287800
H    6.52867900   3.13799000  -0.40714200
H    4.96656400   3.60888200   0.38615500