15

C    2.16392000  -0.57780100   0.79855900
C    2.47078400   0.15329300  -0.30757500
C    2.99206100   1.57178300  -0.25456100
C    4.30922000   0.94373900  -0.05197400
C    5.15051100   0.54677300  -1.09886400
C    6.38156400  -0.05075600  -0.87299000
C    7.47528000  -0.56641300  -0.68900100
H    1.76792000  -1.59201200   0.70478100
H    2.27223800  -0.16948600   1.80809700
H    2.38114100  -0.30061000  -1.29918700
H    2.63205700   2.15211900   0.60084800
H    2.86547300   2.10601500  -1.20194200
H    4.64106000   0.75898400   0.97482900
H    4.85066600   0.73224700  -2.13766100
H    8.44116000  -1.02123700  -0.53022800