15

C    1.02048800   0.04018800   0.24301600
C    2.42920400  -0.08278900  -0.26419200
O    2.49440600  -1.09726100  -1.33353500
C    3.27647600  -0.72684700  -2.28185000
C    3.76432200   0.57447400  -2.11480100
C    3.07087300   1.16926900  -0.93428900
O    3.78648400   1.99979400  -0.10939800
H    1.00963200   0.80583800   1.03208300
H    0.67265600  -0.90657800   0.67593700
H    0.33287500   0.35059400  -0.55635000
H    3.11186300  -0.46557500   0.51306400
H    3.45203500  -1.43716200  -3.09544400
H    4.48971000   1.07675000  -2.75822200
H    2.23870700   1.78214900  -1.34861500
H    4.60873400   1.59022400   0.18532000