15

C    1.04235300   0.44141900  -0.23075100
N    2.37136200  -0.02968500  -0.40814100
C    3.10561400  -1.14179800  -0.89135000
C    3.60358600   0.27666200  -1.08451400
C    4.75424500   0.81054500  -0.31052200
N    5.32482400   1.83678100  -0.80417200
O    6.36443600   2.26382100  -0.08757700
H    1.06416700   1.44735000   0.20955300
H    0.47215000  -0.26992200   0.38162500
H    0.56719600   0.50744600  -1.23164900
H    2.64440800  -1.71223800  -1.70775300
H    3.60197400  -1.74821000  -0.11994000
H    3.45651900   0.77536300  -2.05283900
H    5.08774700   0.32080100   0.61480000
H    6.71302900   3.02546100  -0.56937500