13

C    1.04347200  -0.07994600   0.16527700
C    2.25666000  -0.02600200   0.06968700
C    3.64049600   0.07068000  -0.03857900
N    4.40295500  -1.03076700  -0.12879900
N    5.62822200  -0.65892700  -0.21701100
C    5.88187500   0.78222200  -0.19960700
C    4.45757900   1.33253400  -0.07159000
H   -0.03141100  -0.13901500   0.24981300
H    6.34587300  -1.38354400  -0.29234800
H    6.39867200   1.07018100  -1.12816000
H    6.54121500   1.02382400   0.64833500
H    4.15705000   1.96807300  -0.91931000
H    4.29765300   1.92365600   0.84371300