15

O    1.49381000  -0.06697600   0.96970800
C    2.62216400  -0.04455400   0.18992800
C    3.07809200   1.35798000   0.00956400
C    4.19297600   1.83070500  -0.71663100
C    4.23063200   3.30377300  -0.60055000
C    3.01098300   3.61158300   0.27277300
O    2.41798000   2.31291700   0.55839400
H    1.18918500  -0.97173700   1.09305900
H    2.48485300  -0.45524900  -0.83505000
H    3.48998700  -0.59584700   0.61529300
H    4.89815600   1.20470000  -1.26508200
H    5.18400000   3.64297900  -0.15526500
H    4.18741100   3.78222500  -1.59625300
H    2.22903700   4.20400900  -0.21971600
H    3.24287700   4.06344000   1.24590700