16

C    0.96783500   0.00081600   0.05281400
C    2.49819300  -0.00668900  -0.03133000
C    3.01985800  -1.21442800  -0.83964500
C    3.38787000  -0.70144000  -2.15733300
C    3.39531500   0.70753200  -2.14773100
C    3.03263200   1.20638100  -0.82315300
H    0.61319800   0.88603600   0.59857500
H    0.60383200  -0.88796400   0.58648700
H    0.51315700   0.01005700  -0.95106500
H    2.90906600  -0.01580000   0.98764900
H    2.34810700  -2.09181500  -0.89202500
H    3.95207300  -1.65250400  -0.40464600
H    3.64966300  -1.31626800  -3.02372100
H    3.66359200   1.33131200  -3.00569600
H    3.96938400   1.62861700  -0.38228400
H    2.37017800   2.09143800  -0.86353100