15

C    0.99407800   0.05195400   0.13135100
C    2.47767100  -0.02316900  -0.18227600
O    2.72249400  -1.12096700  -1.10421100
C    3.33330800  -0.68781200  -2.15067200
C    3.59502500   0.68738200  -2.11762000
C    3.08118600   1.15734900  -0.89756400
C    3.11412600   2.45916500  -0.43019000
H    0.82139700   0.84360500   0.87321600
H    0.65438200  -0.89981600   0.55914600
H    0.41181400   0.27656000  -0.77261900
H    3.05852500  -0.27793100   0.72100200
H    3.57444600  -1.42197300  -2.92415500
H    4.09801600   1.25950900  -2.89576300
H    2.68712800   2.72942600   0.53857000
H    3.57530100   3.25039500  -1.02547900