18

C    1.01504400  -0.12256000  -0.01844100
C    2.49382400   0.10380000  -0.06968500
C    3.46729600  -0.53525700  -1.13710300
C    4.52667500  -0.33266100  -0.01010900
C    4.60152100   1.19871300   0.10149200
C    3.08159100   1.52729500   0.05383900
N    3.38021300  -0.63510300   0.84873400
H    0.58883800   0.29485200   0.90511700
H    0.75931700  -1.18886900  -0.08844000
H    0.54784600   0.39689500  -0.86659300
H    3.61898700   0.07417100  -2.04170700
H    3.24490100  -1.58344600  -1.36807000
H    5.42500800  -0.94590000   0.10687400
H    5.08388300   1.51439500   1.03528300
H    5.17226300   1.61397700  -0.73869300
H    2.78474500   2.13102000  -0.81347700
H    2.71865100   2.02755600   0.96160000
H    3.17668600  -1.53446800   1.30024200