18

C    1.52529900  -0.20749200   0.91020700
N    2.77023700   0.31890300   0.46537000
C    3.11105400   1.69582400   0.28690100
C    2.40846700   2.65926100   1.23014900
C    4.66331800   1.75895900   0.31015800
N    5.19308100   0.59507900  -0.37404600
H    1.49629400  -1.29272200   0.76493500
H    0.69142600   0.28360500   0.38081600
H    1.39843600   0.02207900   1.98566000
H    3.58821500  -0.26574700   0.15596100
H    2.79263200   1.92092000  -0.75921400
H    2.65246000   2.43067600   2.27823100
H    1.31748800   2.64729100   1.10342300
H    2.75307400   3.67969300   1.01535500
H    4.99055900   1.74542400   1.36086000
H    4.97453200   2.72634300  -0.11400600
H    6.07311800   0.27453200   0.02240200
H    5.34615900   0.75642600  -1.36798600