20

C    1.38714900   1.04049600  -0.19942400
C    2.62265400   0.14778400  -0.18967400
N    3.60799300   0.56029200   0.77750100
C    4.99105800   0.83599300   0.48419700
C    4.92979300   2.29465900   0.08459200
C    5.20367100   3.29960000   0.94137600
C    5.18933000   4.74375700   0.59376100
H    0.66455900   0.64325300  -0.92420900
H    1.64779000   2.06685800  -0.49280500
H    0.89609500   1.06257200   0.78444700
H    3.11163700   0.09408400  -1.17272800
H    2.33943600  -0.88873100   0.08489200
H    3.26498400   0.84153200   1.69984100
H    5.33991300   0.18403800  -0.32725100
H    5.60154800   0.67294200   1.38212300
H    4.60064700   2.50412900  -0.93863100
H    5.49587600   3.04730600   1.96974300
H    4.88964800   4.92404800  -0.44666600
H    6.18721800   5.18005500   0.75952900
H    4.50380300   5.28459900   1.26647700