20

C    0.91266200  -0.00486500   0.03929300
C    2.43050100   0.07907500  -0.01240400
C    3.06022800   1.13742700   0.90787900
C    4.50951200   0.68131600   1.04306900
N    4.44673700  -0.75697900   0.88092200
C    5.56399500  -1.63718900   1.06086200
C    3.14440900  -1.20121400   0.44016800
H    0.53359900  -0.79536800  -0.62380500
H    0.46690400   0.94407600  -0.28857400
H    0.55851100  -0.21120900   1.06119800
H    2.74566800   0.28486600  -1.04995200
H    2.56910400   1.12868800   1.89408500
H    2.98284700   2.15511900   0.50557400
H    5.15950600   1.06960700   0.23208900
H    5.01276700   0.92592600   1.99274500
H    5.22646300  -2.57616900   1.52354500
H    6.33665700  -1.15567800   1.67184000
H    5.98724900  -1.88182800   0.06873000
H    3.25048200  -1.99693400  -0.31462500
H    2.64252200  -1.65756700   1.32029600