19

C    0.89309800  -0.31375500   0.13523900
C    2.37482200  -0.24973500  -0.23385000
C    2.71541800  -1.18826000  -1.38971900
C    2.79835800   1.19389200  -0.60410400
C    2.61194400   2.12897600   0.52496600
N    1.90087100   3.17930900   0.44745700
N    1.60374100   4.14409200   1.26915500
H    0.64925600   0.30734100   1.01322600
H    0.60259200  -1.34451500   0.38142500
H    0.26097600   0.01835800  -0.70396500
H    2.97066100  -0.55572800   0.64456200
H    2.15261400  -0.91891100  -2.29712300
H    2.45266400  -2.22288200  -1.12864800
H    3.78804400  -1.16482500  -1.63132400
H    2.25624500   1.55599900  -1.49014700
H    3.87911900   1.20333600  -0.83445300
H    3.09433400   1.91253400   1.49471800
H    0.63724200   4.18209800   1.60401100
H    2.08546700   5.03675200   1.13055600