15

O    2.88176600  -0.86934300  -0.69561200
C    2.34127700   0.11013200   0.12314100
C    3.33875200   1.28064500   0.02292400
C    3.51458500   1.83737300  -1.39288800
C    3.02057100   3.22432500  -1.24808300
N    2.66768500   3.52855100  -0.00888900
N    2.86043700   2.46870300   0.71917300
H    2.36051800  -1.67745300  -0.64781500
H    2.25381000  -0.20046700   1.18087000
H    1.34564400   0.46044800  -0.21469000
H    4.29029500   0.96099900   0.48113500
H    2.95419200   1.26807600  -2.15511300
H    4.56243200   1.83176800  -1.74328500
H    2.93355300   3.98361700  -2.02868300
H    2.65315800   2.53123900   1.72001900