9

C    0.86131600   0.16597700  -0.00196400
C    2.04498400  -0.08650200  -0.00001000
C    3.44167600  -0.39386800   0.00268500
C    4.34942500   0.82014700   0.00190800
N    5.66736800   0.54395800   0.00451200
N    6.73384600   0.22551800   0.00680200
O    3.96531200  -1.47983900   0.00569600
H   -0.19718600   0.38012400  -0.00407600
H    4.07222900   1.88171400  -0.00051300