13

C    0.89957800  -0.00426800   0.19893000
C    2.40679900  -0.05307800   0.04273900
N    3.22481500   0.87918300   0.78844500
C    4.14055500  -0.06618400   1.37224200
C    3.32349500  -1.16832100   0.64227700
O    3.35660800  -2.33943900   0.58194900
H    0.47830500  -0.85419200  -0.35514200
H    0.48466000   0.91979100  -0.22690600
H    0.60778000  -0.08998500   1.25405600
H    2.69472200   0.03119700  -1.03210300
H    3.15956800   1.89703400   0.89005800
H    5.20995800   0.12251900   1.17129400
H    3.99947400  -0.14752900   2.47080700