14

C    0.99016700  -0.05616000  -0.03681900
C    2.33391200   0.09291100   0.00979700
C    3.05508300   1.31935900  -0.18360100
C    4.42660000   1.13342900   0.00668200
C    4.72495100  -0.25316800   0.32635700
N    4.31773000  -1.14627000  -0.78447700
C    3.38069100  -0.96264800   0.26242000
H    0.51525100  -1.01833600   0.17059600
H    0.34080600   0.78898600  -0.27885400
H    2.58681200   2.28454900  -0.39088300
H    5.17096300   1.93181800  -0.03487900
H    5.58086600  -0.57126200   0.92356700
H    4.10898900  -0.72288700  -1.69361100
H    3.19858300  -1.81459200   0.92828400