19

O    2.44279000   0.02520800  -1.25474000
C    1.99076400   0.53353600  -0.04313400
C    2.54347600   1.94618400   0.13634500
C    4.10147900   1.87062900   0.17140000
C    4.60689900   3.27357700   0.15127700
C    6.31354700   3.19993600   0.00132400
O    6.76407200   4.45374200   0.04632900
H    2.34738600  -0.93222200  -1.27346600
H    2.26504100  -0.10777300   0.81443800
H    0.88615400   0.64887700  -0.03023700
H    2.15128400   2.39364500   1.06067800
H    2.21453100   2.56146100  -0.71406200
H    4.39260300   1.29158800  -0.71904400
H    4.43036500   1.33320800   1.07281100
H    4.46737600   3.84257200   1.08005600
H    4.29001600   3.85908400  -0.72333900
H    6.47766300   2.66388800  -0.94512500
H    6.60750900   2.65153700   0.90602200
H    6.82403600   4.86743700  -0.83073500