15

O    1.05626100   0.05628400  -0.38780400
C    2.35350100   0.03089100   0.07286500
C    2.95396900   1.34613700   0.03962100
C    3.48491400   2.46516000   0.01790000
C    4.05884900   3.71981700  -0.01398600
C    3.58584800   4.74428000  -1.14544200
C    3.11642300   4.99339800   0.19300800
H    0.68117700  -0.83074700  -0.35196100
H    3.03732600  -0.62722200  -0.51352900
H    2.46151300  -0.32326000   1.12518000
H    5.09261600   3.81258200   0.33131200
H    2.90732200   4.31475300  -1.88575600
H    4.44343100   5.29843400  -1.53629000
H    3.61747200   5.73687600   0.81869300
H    2.08503200   4.75122000   0.45858000