14

C    0.94357300  -0.03636100   0.00877700
C    2.47837000  -0.09036400  -0.02779600
C    3.08040000  -0.75896600  -1.14290700
C    3.59515500  -1.31759300  -2.09407000
C    2.97515400   1.46160600  -0.10197500
N    2.89864000   2.08810900  -1.25289500
O    3.32615900   1.89361200   0.97326500
H    0.60078500   0.57984200   0.85006100
H    0.58657900  -1.06497900   0.16565100
H    0.51978100   0.34169000  -0.93056300
H    2.88486900  -0.47082100   0.92020100
H    4.04825500  -1.83921100  -2.92364000
H    2.61753300   1.59026900  -2.09343900
H    3.14407500   3.07385400  -1.31814700