16

C    1.63817000  -0.72238500   0.31821900
C    3.04537400  -0.47519400  -0.14593100
O    3.44181900   0.87121300   0.33878000
C    4.56947400   1.40438500   0.12992200
C    4.83404200   2.75386500   0.67081200
N    5.46464600   0.66584600  -0.59572100
O    6.57864900   1.32067700  -0.74007100
H    1.33128300  -1.71710700  -0.03423600
H    0.94251900   0.01792000  -0.09858700
H    1.56958400  -0.71151700   1.41407000
H    3.14909200  -0.45256100  -1.23894200
H    3.77544700  -1.18112300   0.27189200
H    3.95323500   3.11816800   1.20952900
H    5.09151900   3.43843500  -0.15249200
H    5.70718000   2.71887900   1.34106300
H    7.17635300   0.75166400  -1.26100700