14

C    1.74104300  -0.16801900   0.20591600
C    0.88564200  -1.36056600   0.64165700
C   -0.24368800  -0.91590800  -0.42135100
C   -1.36642400  -0.24173400   0.21416300
N   -1.22871100   1.07472500   0.25026300
O   -0.10080900   1.39878200  -0.33473600
C    0.63161000   0.26272000  -0.80838900
H    2.66704200  -0.43102700  -0.32103600
H    1.95356300   0.59325100   0.96671100
H    1.27700800  -2.34710100   0.36551400
H    0.54772000  -1.37201500   1.68466500
H   -0.50285900  -1.69991300  -1.14703700
H   -2.25001300  -0.68531300   0.68151500
H    0.93599300   0.47266300  -1.84364500