17

C    1.71068000  -0.12528100   1.35461000
C    2.28877300   0.19945700  -0.01766200
C    3.37770300   1.24038400   0.01643400
C    3.64908400   2.17275400  -1.07691000
C    2.87051700   2.74754000   0.11902500
C    3.55794200   3.54047900   1.08675300
O    3.03463400   4.37173500   1.81587800
H    0.96190500  -0.92412100   1.27492200
H    1.21458300   0.75018800   1.80127500
H    2.49147300  -0.47006100   2.04874500
H    1.49901400   0.51180400  -0.71957600
H    2.74948000  -0.70112200  -0.45965100
H    4.21905200   1.00773900   0.67929200
H    3.03414300   2.12213000  -1.97953500
H    4.66874700   2.53017700  -1.23843300
H    1.79872000   2.93405100   0.02149700
H    4.66267300   3.43877900   1.22786300