13

N    0.87414700  -0.05165800   0.44296800
C    2.01024000  -0.02538000   0.20876000
C    3.41010100   0.00650200  -0.06316300
C    4.32876400   0.98342900   0.82370900
C    5.31237100  -0.00960600   1.45924700
C    4.36169200  -0.99303200   0.76178300
H    3.62363500   0.04378300  -1.13884400
H    3.67657200   1.46218600   1.56678400
H    4.82549000   1.63393100   0.08501700
H    6.32713200   0.02004300   1.05298900
H    5.31060600  -0.04387500   2.55226100
H    4.87894300  -1.57912500  -0.01571500
H    3.72651400  -1.53878800   1.47271200