15

C    0.89457500   0.05762000   0.00670100
C    2.40433600   0.04504600   0.17379700
C    2.94501700  -0.86877600   1.27040100
C    3.08275300  -0.67948100  -1.27595400
O    2.40144200  -0.85021700  -2.20001600
C    3.03859100   1.31270300   0.05098300
C    3.59068800   2.39220100  -0.10507200
H    0.57816100   0.65824300  -0.85484500
H    0.46790900   0.50602800   0.91729300
H    0.50388100  -0.96428900  -0.08897500
H    2.54365700  -0.49239800   2.22530600
H    4.04121900  -0.85408300   1.33443800
H    2.58411000  -1.89879300   1.14030000
H    4.15395100  -0.93663800  -1.12397300
H    4.06914700   3.35359400  -0.22362400