16

N    2.02495300  -1.22182300  -0.32540000
C    2.04058200  -0.15687900   0.62719800
C    3.26294700   0.70681900   0.40752200
N    4.27273300   0.60400800   1.21609800
C    3.32370800   1.64966100  -0.75229500
C    2.61140800   2.88025500  -0.27949400
H    1.70139400  -1.01343800  -1.26179000
H    2.79345600  -1.88091100  -0.30179300
H    2.03579600  -0.54802500   1.65780400
H    1.14005700   0.46469800   0.51832700
H    4.21715800   0.04207200   2.06480500
H    5.15221000   1.09032700   1.04688200
H    2.81524100   1.19318300  -1.61288000
H    4.36691100   1.86171700  -1.03673400
H    3.13609900   3.61494500   0.33477800
H    1.55378800   3.03623500  -0.50026900