21

C    1.34823000  -0.27654800  -0.15771800
N    2.62308100   0.31802300  -0.36818100
C    3.02884000   1.65505300  -0.02695500
C    2.62891200   2.55510500  -1.22997300
C    2.38583000   2.15157200   1.26444200
C    4.58432000   1.57059500   0.07960600
N    5.10113300   0.71473700  -0.97139400
H    1.27871600  -0.61145400   0.89613500
H    1.22270600  -1.14850500  -0.81015000
H    0.54456200   0.45885400  -0.31649800
H    3.42173700  -0.15673800  -0.86008700
H    3.09089300   2.21354300  -2.16652000
H    2.97438700   3.57602000  -1.01395700
H    1.53816400   2.57683700  -1.36139500
H    2.59093700   1.46999200   2.10269600
H    1.29909800   2.28126300   1.16433100
H    2.81127100   3.13347200   1.51457700
H    4.83853400   1.13445300   1.05700700
H    4.98084100   2.59875500   0.07054400
H    5.92113500   0.18989400  -0.67779800
H    5.35486900   1.22616800  -1.81394800