19

C    1.01564200   0.00044800  -0.03304000
C    2.53874000  -0.07545900  -0.04022300
O    3.05378800  -0.76819600  -1.11693900
C    3.10701400   1.39746500   0.00109000
C    4.67782800   1.27820000  -0.05394500
C    5.08027800   2.66644200  -0.14880500
C    5.53040100   3.41879800   0.93213900
H    0.64547800   0.52971900   0.85472500
H    0.61346600  -1.02292000  -0.01845100
H    0.63472900   0.51588700  -0.92902600
H    2.90617600  -0.58086900   0.86628700
H    2.51673800  -0.61410700  -1.90452200
H    2.76445600   1.89693100   0.91894800
H    2.72346500   1.95743800  -0.86610100
H    4.89011700   0.68296700  -0.95643000
H    5.04633800   0.76802300   0.84583500
H    4.96772500   3.16889700  -1.11735800
H    5.56322800   2.99305700   1.94035900
H    5.88289900   4.44518800   0.79625800