12

C    1.01016100  -0.02316200  -0.04098000
C    2.47563600   0.00516000   0.10596700
N    3.22201900  -1.02028100   0.34657300
C    4.66131700  -0.72722600  -0.01924500
O    5.50819100  -1.51601100  -0.16301100
C    4.63351200   0.77879900  -0.06045800
C    3.35693200   1.20128400   0.03464900
H    0.61973500  -1.04628600  -0.07758000
H    0.71850000   0.54713600  -0.93633300
H    0.57999300   0.50446600   0.82970500
H    5.55644800   1.36178100  -0.06797400
H    2.99165200   2.22865000   0.07883700