16

N    2.29648800  -0.62692700  -1.18312000
C    2.42639900  -0.09582800   0.07629300
C    3.52400700   1.15732100   0.06286300
O    3.05506400   2.20463600  -0.68372500
C    2.96888900   3.08241500   0.46211300
C    3.49049700   1.95617600   1.39505000
O    4.66718300   2.10292400   2.06951700
H    1.69708700  -0.18433700  -1.87797600
H    2.91349700  -1.36470900  -1.51786200
H    2.85259200  -0.80658200   0.79789500
H    1.49523400   0.36553900   0.43114700
H    4.46934400   0.71310500  -0.29226900
H    3.66688600   3.92661900   0.35386600
H    1.94787400   3.45718700   0.61869400
H    2.74409900   1.59007200   2.11447000
H    5.32937300   2.56298100   1.53983400