20

C    0.63120700  -0.58885800   0.42402900
C    2.16768200  -0.61993100   0.24337600
C    2.66701500  -1.84016100  -0.50796000
N    2.57590000   0.63074600  -0.34906000
C    3.17190300   0.82802600  -1.64211700
C    3.09211600   2.25373500  -2.09845000
C    4.16356000   3.01992300  -2.29854000
H    0.30120100   0.28497400   1.00302200
H    0.33800800  -1.49339300   0.97330800
H    0.12899400  -0.58976700  -0.55356100
H    2.60606900  -0.59496100   1.26174300
H    2.18723000  -1.94373300  -1.49253400
H    2.41181400  -2.73531400   0.07430600
H    3.75829800  -1.82884000  -0.63721600
H    2.39647200   1.47789200   0.20170400
H    2.68161100   0.12579500  -2.34235500
H    4.22259500   0.47295300  -1.57395000
H    2.08678700   2.64258800  -2.29423000
H    5.18141000   2.65277100  -2.13384300
H    4.05980900   4.04839000  -2.65098700