14

C    2.72624900  -1.05503800  -0.26865100
O    3.91446800  -0.27100800  -0.04343700
N    3.73980700   1.00636800  -0.07484400
C    4.88179100   1.64875300   0.15265400
C    4.86546200   3.07419400   0.15725800
C    5.59697900   3.77117300   1.32792600
O    6.11801600   3.70058300   0.06524100
H    2.64671400  -1.73725700   0.58758900
H    2.90689200  -1.62866600  -1.18787900
H    1.86342300  -0.38605700  -0.35771700
H    5.81361400   1.09435100   0.33919400
H    3.99223300   3.59678800  -0.25067700
H    6.09558100   3.18269100   2.10783700
H    5.10571800   4.70488800   1.63132500