19

C    0.82891600  -0.14249600   0.02564100
C    2.31364800  -0.20365100   0.03121300
O    2.95358800  -0.70732500  -1.00826200
C    3.12612100   1.78673200   0.09791900
C    2.70045400   2.31136900  -1.23812500
C    2.51322100   2.33622700   1.34263400
O    4.39002300   1.44683400   0.25464300
H    0.44258900   0.41269700   0.88818200
H    0.44595000  -1.17577900   0.10544100
H    0.43033300   0.29330300  -0.90357800
H    2.84060700  -0.41116300   0.96873800
H    2.38550500  -0.77579100  -1.79015200
H    3.12139100   1.72495100  -2.06757100
H    3.08328500   3.34302200  -1.32778100
H    1.60832900   2.35942000  -1.32959800
H    2.75496200   1.72136100   2.22001200
H    1.42937000   2.46546600   1.24563600
H    2.95783200   3.33232400   1.51199500
H    4.82322100   1.22791100  -0.58385600