16

C    1.57859000  -0.20844400  -0.30942300
C    2.95564200   0.07791700   0.25201800
N    3.56522200   1.24185200  -0.30125200
C    4.83247900   1.57274300  -0.36402000
N    5.26291800   2.79630700  -0.18863500
C    4.41915800   3.91096200   0.22068900
H    1.17336800  -1.11502700   0.15908700
H    1.62195200  -0.36842800  -1.39522000
H    0.88956900   0.62167900  -0.10300600
H    3.65970400  -0.76972700   0.09971600
H    2.93425200   0.20614200   1.35463100
H    5.56696700   0.80762400  -0.66615500
H    6.25642800   2.96563200  -0.32938000
H    3.39267100   3.71924200  -0.12414300
H    4.79949200   4.83179700  -0.23576300
H    4.42064600   4.01861100   1.31469700