14

C    2.37917100  -0.88406600  -1.28054400
N    2.91216100  -0.29318300  -0.09450500
C    3.50014500   0.96989700  -0.08184300
C    4.87317300   0.99599500  -0.89421100
O    5.16208700   0.22719800  -1.74340100
C    5.77349100   2.21124300  -0.48336100
O    5.42340000   2.94955300   0.37703800
H    1.78695200  -1.77398300  -1.03748300
H    3.23593000  -1.18210700  -1.92877400
H    1.78038200  -0.15174600  -1.84121200
H    3.08758500  -0.90455500   0.70482300
H    3.70761800   1.33484400   0.93365800
H    2.88486300   1.71327500  -0.62217100
H    6.71405100   2.28477100  -1.07175100