17

C    3.17071400  -1.24751800  -0.43490500
C    2.43569100  -0.01066400   0.10438000
C    3.33618700   1.17132200   0.20357300
N    3.47382100   2.08200800  -0.84277500
C    2.92075600   2.80556200   0.22448900
C    3.74927300   3.63028500   1.15540800
H    2.47928500  -2.09931600  -0.46100200
H    4.02050000  -1.52070700   0.20626200
H    3.54413900  -1.08071800  -1.45546500
H    2.06246900  -0.21773000   1.12117700
H    1.56275500   0.23271900  -0.52151200
H    4.18051300   1.12046600   0.90298500
H    2.90159600   1.93578400  -1.68016600
H    1.87181600   3.10089200   0.09435500
H    4.79466200   3.30015500   1.19684500
H    3.31010800   3.63133900   2.16212400
H    3.71972400   4.66662300   0.77875500