22

C    1.01132800   0.10649400   0.05664500
C    2.54283200  -0.10202700  -0.00143500
C    3.01253900  -0.81975800   1.26569700
C    2.90511300  -0.90696900  -1.25134500
C    3.10095200   1.33830400  -0.07520900
C    4.71321600   1.33389500  -0.14245400
N    5.15839500   2.64783200  -0.20934000
H    0.63572400   0.62091300  -0.83996400
H    0.71172400   0.68202800   0.94467900
H    0.52169600  -0.87723200   0.11117800
H    2.80004900  -0.23033800   2.17113800
H    4.08906700  -1.05466600   1.24166100
H    2.48988600  -1.78166200   1.36815300
H    2.61399000  -0.38115900  -2.17391900
H    2.37895800  -1.87236900  -1.24191700
H    3.98055100  -1.14232200  -1.30322900
H    2.81140400   1.91989700   0.81254000
H    2.73629700   1.85725800  -0.97403200
H    4.99361800   0.78076500  -1.04921500
H    5.06978500   0.84775300   0.77585900
H    5.22904500   3.14414100  -1.10007900
H    5.30056500   3.20832700   0.63348700