16

C    1.21955000  -0.53775100  -0.80692600
N    2.55601400  -0.18274200  -0.32245500
C    3.36100500   0.64675300  -0.93005500
O    3.23742000   1.32183000  -1.91850400
C    4.92047500   0.75830600  -0.22341800
C    5.48756600   2.13647700  -0.40793000
O    4.78912300   0.30501900   1.03721500
H    1.23222500  -1.54849900  -1.23593400
H    0.90609500   0.18255000  -1.57094700
H    0.51832100  -0.50229800   0.03564800
H    2.92455700  -0.62970800   0.51602400
H    5.39271500  -0.02392700  -0.84467700
H    4.89519300   2.89734200   0.12322000
H    5.51731400   2.40062200  -1.47276200
H    6.51406700   2.14099900  -0.01191600
H    4.75661700   1.03151400   1.67948900