21

C    0.93667100   0.71088000  -0.93704300
C    2.39481100   0.41164400  -0.61049900
C    3.26801700   1.67210900  -0.65286400
C    4.70841900   1.38244800  -0.28647300
N    5.42113800   0.65811400  -1.18917100
C    5.50361700   3.03205700  -0.01825400
N    5.35474100   3.88408700  -1.05961000
H    0.33605600  -0.20827200  -0.90455300
H    0.83105800   1.14374900  -1.94348900
H    0.50061400   1.41896700  -0.21617900
H    2.79710000  -0.33112100  -1.31861700
H    2.46963900  -0.04627600   0.38960000
H    2.86102000   2.42187000   0.04383700
H    3.23360400   2.12241200  -1.66039800
H    4.86092500   1.02180500   0.74150300
H    5.18050500   0.66538000  -2.17508200
H    6.23747800   0.12007100  -0.92078000
H    6.53764000   2.72608900   0.17231800
H    4.95268500   3.32512200   0.88351400
H    6.01940800   3.91088300  -1.82461900
H    4.52695500   4.46193900  -1.15553700