11

C    2.80179200  -1.14149800   0.55686700
C    2.33569100  -0.02960700  -0.04719500
C    3.04002600   1.23082000  -0.03456100
C    2.51172300   2.52414100   0.00028800
N    3.52790600   3.41248000   0.05417800
N    4.67064100   3.02850000  -0.03991300
S    4.77081100   1.33782200  -0.02487300
H    2.24740000  -2.08088800   0.49464300
H    3.72625900  -1.15105600   1.14393000
H    1.37778900  -0.04428200  -0.57641100
H    1.47053000   2.83575300   0.06465600