12

N    1.00632700   0.01613100  -0.00434700
C    2.33312600  -0.00148600   0.00089000
C    3.11292100   1.20516600   0.00238200
S    4.77894800   0.90651200   0.00909500
C    4.47696300  -0.84289700   0.01004800
O    5.54512100  -1.58712000   0.01498000
C    3.14479000  -1.16864600   0.00537000
H    0.48680300   0.88727600  -0.00704700
H    0.46892700  -0.84439700  -0.00522800
H    2.72077000   2.22304600  -0.00027100
H    5.34735700  -2.53525500   0.01530400
H    2.76331200  -2.18934900   0.00519500