15

C    0.95508100   0.06229300   0.00305200
C    2.43103300  -0.03503400   0.03502200
C    3.22201000  -1.15025600   0.01219500
C    4.57547600  -0.70359100   0.06271200
C    5.76210800  -1.46324000   0.06326000
O    4.65431500   0.60448800   0.11433800
C    3.33822100   1.14390900   0.10217300
H    0.48471100  -0.92594100  -0.05288700
H    0.63268500   0.66382900  -0.86195200
H    0.59031600   0.58325800   0.90295100
H    2.90400800  -2.19033100  -0.03528200
H    6.73054800  -0.96033900   0.10636700
H    5.71058600  -2.55198500   0.02063200
H    3.24560000   1.81768000  -0.76709200
H    3.20148400   1.75033100   1.01416200