14

C    1.56008700  -0.13236300  -0.42375200
O    2.88799300   0.37877200  -0.18183200
C    3.14314500   1.62661200   0.02002700
C    2.15714900   2.66122200   0.03205100
N    4.42567600   1.93276400   0.22789200
C    5.54050100   1.01658200   0.24854600
O    6.62932800   1.43798200   0.44682900
H    1.69044900  -1.21018200  -0.55350100
H    1.15169700   0.30990500  -1.34191500
H    0.91976200   0.06669900   0.44559800
H    1.10262900   2.44029900  -0.13435000
H    2.45701500   3.69542700   0.21064100
H    4.68331800   2.90666400   0.39315600
H    5.25440400  -0.03573000   0.06889000