17

C   -1.46669400   0.65631100   0.88303200
C   -1.17952300  -0.36207400  -0.18858900
C   -0.24991500  -1.57653900   0.13585700
N    1.12693000  -1.25391800   0.00361400
C    1.58307400  -0.03746000   0.52892800
C    0.81432300   1.17815300  -0.20674800
N   -0.56459300   0.90828000  -0.20187800
H   -2.40429900   1.21921100   0.86446000
H   -1.03577600   0.49269100   1.88023300
H   -1.93623800  -0.57297700  -0.95388400
H   -0.47804700  -1.84924800   1.18453400
H   -0.50086500  -2.43352100  -0.49887100
H    1.65420600  -1.68632400  -0.74955600
H    1.34160600   0.04846000   1.60121200
H    2.66118400   0.09669900   0.38014700
H    1.03964900   2.11598400   0.31800600
H    1.18957800   1.21764200  -1.23885900