21

C    2.21279300  -0.53465100   1.29952900
C    2.51055400   0.06510300  -0.09807500
C    3.03580600   1.44703300   0.03523700
C    2.05813500   2.54862000   0.19169000
C    4.43972300   1.71517300   0.02374000
C    5.43637200   0.62130100   0.07324700
C    4.94731000   3.10510200  -0.04553900
H    1.79741000  -1.54214200   1.16634400
H    1.47751200   0.06966500   1.84817300
H    3.12192200  -0.61565800   1.91155800
H    1.56919300   0.10344200  -0.66792600
H    3.20791100  -0.58694400  -0.64085800
H    1.08617700   2.17787800   0.54196900
H    1.88547500   2.99083100  -0.81048700
H    2.40822400   3.36126100   0.84242900
H    5.07378400  -0.30165700   0.54030500
H    6.36112800   0.95540900   0.56439600
H    5.71730300   0.37899900  -0.97199200
H    4.27724000   3.80010600  -0.56698200
H    5.94994400   3.14110800  -0.49253900
H    5.05749700   3.47413100   0.99460100