11

O    0.91955600   0.41945500   1.13083400
C    2.09288800   0.33000900   1.18643300
N    2.91800600   1.36992400   0.57243300
C    4.22818700   1.37644600   0.57141800
C    4.99331400   2.40082900  -0.03353600
C    6.38656200   2.35043200  -0.00067400
N    7.55339400   2.30167300   0.03072700
H    2.69349500  -0.47175500   1.66254700
H    2.38089600   2.12254200   0.12557700
H    4.73203600   0.53788900   1.06908700
H    4.51343000   3.24886900  -0.53676800