11

C    0.98499600  -0.04229300  -0.08353100
C    2.48002600  -0.02632100   0.07703900
C    3.30646100  -0.72534200  -1.12202800
N    3.33189000   0.63539800  -0.82725000
H    0.58456400   0.81333400   0.48259200
H    0.57753000  -0.96243600   0.35559900
H    0.67483900   0.04042800  -1.13274600
H    2.85483500  -0.04292400   1.10862500
H    2.58015400  -1.07834500  -1.86464700
H    4.24151000  -1.28868900  -1.03274200
H    4.18616600   1.13000900  -0.54601900