15

N    1.09312800   0.06573300  -0.20093400
C    2.44364000   0.10211700  -0.11264200
C    3.06825200   1.19472900   0.74263500
C    4.39717800   0.64467500   1.25186200
N    4.14250800  -0.78250500   1.40585700
C    3.12298300  -1.30195200   0.74289900
O    2.66177200  -2.37901600   0.59066100
H    0.62655100  -0.47183700  -0.92738600
H    0.50591300   0.42397200   0.54850000
H    2.92921700  -0.08472200  -1.08484300
H    2.39947400   1.42484200   1.58677100
H    3.19473700   2.11122800   0.14937700
H    5.21651200   0.81023900   0.53531500
H    4.68616200   1.08476900   2.21440800
H    4.77265800  -1.40603100   1.90677800