18

C    2.93718600  -0.93286800  -0.52851400
O    3.12731600   0.41340600  -0.90245900
C    3.94184700   1.13549400  -0.05498300
C    3.89535700   2.56108600  -0.59734700
N    4.80385500   3.44466300   0.04255700
C    6.18664000   3.57502500   0.34786600
C    5.34354500   4.75209800  -0.08413600
H    2.27575300  -1.38584500  -1.27555800
H    2.46281200  -1.00880700   0.46590600
H    3.89416200  -1.48378000  -0.51356100
H    4.98926800   0.76576100  -0.05428700
H    3.58444200   1.12007100   0.99460900
H    2.88545000   2.99934900  -0.55081900
H    4.16863600   2.54067800  -1.67781900
H    6.87578400   3.07836600  -0.34656200
H    6.45347000   3.50416200   1.41012900
H    5.04204500   5.47063800   0.68899000
H    5.39348400   5.15002900  -1.10516100