11

N    0.95739700  -0.01848400  -0.13564300
C    2.25949200  -0.09088700   0.01878000
O    2.96771200   1.09189000   0.05928400
C    4.26517300   1.10019600   0.21068900
C    4.96428200  -0.08609200   0.33486200
C    4.20693000  -1.26910800   0.28857700
N    2.88786500  -1.25490400   0.13398800
H    0.62754800   0.95287800  -0.20896400
H    4.70015500   2.10362100   0.22564900
H    6.04771200  -0.08506900   0.46153000
H    4.68247900  -2.25160300   0.37945900