16

C    1.08551400   0.45183200  -0.33422500
C    2.40063000  -0.11839400   0.06313400
C    3.11700300  -1.14192600  -0.67707800
C    3.67881000   0.22225000  -1.05811200
C    4.79941200   0.78265700  -0.43340900
N    5.31931300   1.88567100  -0.96289100
O    6.37163500   2.27971100  -0.29665300
H    1.02276000   1.52707100  -0.11642100
H    0.31982700  -0.04585800   0.28750800
H    0.84255500   0.26524800  -1.38850100
H    2.73079100   0.07777900   1.08878800
H    2.59317100  -1.62218300  -1.50939100
H    3.80482000  -1.78785200  -0.12410200
H    3.31869400   0.70717100  -1.96894200
H    5.25290400   0.34714400   0.46889500
H    6.69559100   3.08365500  -0.73890700