15

C    1.44860800  -0.08003600  -0.42239500
O    2.82670900   0.30486700  -0.32567100
C    3.18075900   1.53475300  -0.06354400
C    2.33658100   2.60010500   0.15012400
C    4.65204500   1.71618500  -0.00797700
N    5.39650900   0.56373800  -0.24315100
H    1.45297700  -1.15044600  -0.64686100
H    0.96159900   0.47326200  -1.23747300
H    0.94097700   0.10142900   0.53523500
H    1.25042000   2.50723100   0.11829800
H    2.75932600   3.58381300   0.36134400
H    4.88937500   2.17813700   0.98159700
H    4.90947900   2.53804200  -0.72011300
H    4.93447100  -0.31978600  -0.43187500
H    6.40914500   0.58867700  -0.22282600