13

N    1.06723800  -0.13246000   0.11728600
N    2.33641000  -0.12806800   0.04350500
C    2.96570800   1.04984900   0.06725000
C    4.34139100   1.07586800  -0.00008600
C    5.57060800   1.13143600  -0.04471600
C    7.03363200   1.20132700  -0.08170400
O    7.54644600   2.47321200   0.07805500
H    0.60143500  -1.04087500   0.09713000
H    0.49486700   0.71791500   0.19828100
H    2.41011400   1.99899400   0.14402100
H    7.36134800   0.67922300  -1.00407100
H    7.39101800   0.56497400   0.75010200
H    7.56846300   2.93684000  -0.76552400