16

N    1.35817100  -0.44373000  -0.70575200
C    2.24362300   0.09084900   0.24048000
C    2.73165600   1.42054700   0.02367200
C    3.19007500   2.53878500  -0.13330100
C    3.69006900   3.88557000  -0.30110300
C    2.79845100   4.96550100   0.38439500
O    3.24325500   6.23566800   0.06332300
H    0.98700600  -1.38655100  -0.59041500
H    1.06685600   0.08478400  -1.52877700
H    3.10298100  -0.61948500   0.36942900
H    1.77696700   0.00701500   1.25726300
H    3.74497800   4.12328000  -1.37532900
H    4.71347500   3.93837400   0.10501700
H    2.76935900   4.77399400   1.47182300
H    1.77208600   4.86459500   0.00156200
H    3.96801600   6.49207900   0.64160300