19

C    0.95344700   0.09812000  -0.12539500
C    2.46733100  -0.06837800  -0.07431600
C    3.18235100   1.29854200   0.01152200
C    4.66650600   1.13565800   0.05822500
C    5.43865700   0.88225500  -1.19530500
N    5.23988300   1.17919300   1.20286000
N    6.48151900   1.19907600   1.58878300
H    0.46408800  -0.88363300  -0.18140500
H    0.64329600   0.67916300  -1.00652000
H    0.57607400   0.61079000   0.77164800
H    2.81338000  -0.61458800  -0.96650300
H    2.75308100  -0.67430000   0.80024000
H    2.84255400   1.84124300   0.90490400
H    2.93381900   1.90075200  -0.87654500
H    4.91378900   0.13310500  -1.80445300
H    6.46871500   0.56054500  -1.00316600
H    5.44682200   1.81912200  -1.77704200
H    6.75135700   0.51280100   2.29646000
H    6.96691200   2.09983900   1.60099900