20

C    2.16340100  -0.34819900  -1.50545600
C    2.53240100   0.10484300  -0.09761900
C    3.24930300   1.46387300  -0.11139600
C    2.48388100   2.68427800  -0.64419900
C    3.10695700   3.87033200   0.10053000
C    3.44218600   3.28267700   1.47337100
N    3.65829600   1.89212800   1.19837100
H    1.67316200  -1.32973000  -1.46383400
H    3.05363300  -0.44453100  -2.14451400
H    1.46457700   0.35014500  -1.98797200
H    3.18499300  -0.64388300   0.38015300
H    1.62899800   0.19825400   0.52662500
H    4.20220700   1.33529600  -0.67958500
H    1.41644500   2.57459900  -0.39220400
H    2.56160500   2.77239500  -1.73423600
H    4.03157600   4.20436400  -0.39358000
H    2.43745800   4.73530500   0.17604000
H    4.31075000   3.70844600   2.00306300
H    2.58958600   3.34607000   2.18486700
H    4.05733300   1.24488400   1.88474400