15

C    0.98598100  -0.00269700  -0.03836100
C    2.43335600  -0.01316700  -0.02177800
C    3.65620500  -0.04795900  -0.00966200
C    5.07333900  -0.04952200   0.00823600
C    5.62421300   1.55477500   0.16918800
N    6.99557700   1.60266300   0.19098600
H    0.62546700   1.03126800   0.08956600
H    0.58230300  -0.60689500   0.78700200
H    0.60234100  -0.38163900  -0.99651100
H    5.51692100  -0.40572200  -0.93165400
H    5.49388100  -0.57871700   0.87434700
H    5.18140600   1.89364700   1.11372600
H    5.20413600   2.06830300  -0.70425200
H    7.51790600   1.45678300   1.05205200
H    7.53943400   1.62150600  -0.66890500