19

C    2.43982600  -0.68422200   1.58272300
N    2.39260200   0.20154400   0.43516100
C    2.89223300   1.42906300   0.40156000
C    5.04390700   1.31846900  -0.15365200
N    5.11050700   0.51250000  -1.22858900
C    5.24855000   2.75487900  -0.22706100
C    5.43649600   3.46916300  -1.35094600
H    3.22373200  -1.44848400   1.46220400
H    1.47322700  -1.19135500   1.70235700
H    2.64457300  -0.10021400   2.48880700
H    2.04696400  -0.19344500  -0.43504300
H    3.06416900   1.92802100   1.35932700
H    2.64914400   2.04893500  -0.46347700
H    5.26462600   0.82996500   0.79975000
H    5.14399000   0.88317400  -2.17045600
H    5.27274500  -0.48059100  -1.12613300
H    5.22905100   3.27195900   0.73625500
H    5.48767100   3.02096300  -2.34762300
H    5.57514900   4.55088700  -1.30470500