12

N    1.01942900  -0.30474400   0.33088400
C    2.11664200   0.13931500  -0.22531100
O    2.82552200  -0.43082900  -1.08096300
C    2.76615400   1.38851100   0.01395100
C    3.50128500   2.37377300   0.03839700
C    4.31386200   3.59442500   0.09353200
O    3.79418000   4.62825300  -0.65525900
H    0.52287900   0.25528800   1.01855200
H    0.64644200  -1.21816200   0.07682100
H    5.35259800   3.29987300  -0.16280100
H    4.35042500   3.89482100   1.15816600
H    4.11896000   4.59314800  -1.56176800