18

C    0.97232400  -0.01004600   0.05956500
C    2.49589300   0.02793000  -0.03752500
C    3.04819100  -1.35132000  -0.65455900
O    2.64109800  -1.42197500  -1.96900600
C    3.19588600  -0.47011000  -2.80023900
C    2.71060200   0.96026400  -2.29649000
N    3.00942500   1.02626500  -0.91393700
H    0.58658900   0.97050000   0.36935400
H    0.68394600  -0.74675500   0.82077500
H    0.50571400  -0.30543800  -0.88910600
H    2.95643200   0.15785900   0.95173200
H    2.59073500  -2.17643800  -0.09390400
H    4.14621900  -1.37357300  -0.55023400
H    4.29915000  -0.49266200  -2.78591300
H    2.82297800  -0.62524300  -3.82015200
H    3.22489500   1.75244100  -2.85406200
H    1.62631600   1.01283200  -2.46845800
H    3.87068900   1.49913900  -0.63770300