16

C    0.99483100  -0.12195100   0.37594500
N    2.42992500  -0.17163100   0.09266200
C    3.12740500  -1.29741800   0.16621000
C    2.59571000  -2.54090100   0.51320300
C    3.08492900   1.12786400  -0.28977200
C    4.55148000   1.10032900  -0.58437200
O    2.37821700   2.07897600  -0.32727900
H    0.65795300   0.91047900   0.24595500
H    0.81082200  -0.44029500   1.41119700
H    0.45654000  -0.77462000  -0.32490000
H    4.19242400  -1.22980500  -0.06407600
H    1.54189800  -2.68961700   0.75684400
H    3.25863300  -3.40779300   0.54414900
H    5.13414300   0.77507400   0.29015100
H    4.84496000   2.12428300  -0.84090400
H    4.78123200   0.44358600  -1.43640400