16

C    0.98152100   0.03192800  -0.02298700
C    2.49070500  -0.14524300   0.04070700
C    2.99733700  -0.75510300   1.32712900
C    3.12781400  -0.70952500  -1.21975800
C    3.01181400   1.47383800  -0.02786900
O    3.64959400   1.93779500   0.82849000
H    0.63978200   0.50636100  -0.95354200
H    0.57784300   0.56981800   0.84683000
H    0.55835600  -0.98806300   0.00722100
H    2.59286600  -0.25443000   2.21681200
H    4.09402100  -0.77299900   1.37977800
H    2.64588700  -1.79985700   1.34408800
H    2.76756200  -0.22868800  -2.13998500
H    2.82719400  -1.77185200  -1.25789400
H    4.22666900  -0.69070500  -1.18775000
H    2.66566000   1.97848600  -0.96118000