15

N    2.12449200   0.81016000  -0.35493700
C    2.90831200   1.21093200  -1.10088700
C    3.95828700   1.68283600  -2.01252500
N    5.20413100   0.96687100  -1.75647100
C    6.09769800   1.34322300  -0.81762600
C    6.36251600   0.27009500   0.46608900
C    7.36467600   0.56266900  -0.55670700
H    4.12094300   2.76214400  -1.87602000
H    3.65736400   1.51679700  -3.05694100
H    5.30818700   0.05200400  -2.19765300
H    6.00510600   2.37388800  -0.46442600
H    5.75734100  -0.63826800   0.40638100
H    6.34783200   0.80914300   1.41720800
H    8.21322200   1.19621600  -0.27990600
H    7.59538200  -0.22045400  -1.28622400