12

O    0.91447300   0.11610900   0.03447400
C    2.08834500  -0.05368600   0.01324400
N    2.90052300   1.17446000  -0.03331600
O    4.18303300   1.27424400  -0.06244100
C    4.99228700   0.06657700  -0.05081800
C    4.22474200  -1.19972700  -0.00509100
C    2.88803100  -1.27319300   0.02486100
H    2.42368700   2.08731500  -0.04491600
H    5.65346100   0.18884600   0.82313600
H    5.61655400   0.14701600  -0.95618900
H    4.83460900  -2.10846500   0.00327700
H    2.34365000  -2.21812600   0.05847800