14

N    1.65931500   0.43565000  -1.24795200
C    2.85787900   0.09590400  -0.86728500
O    3.73385400  -0.13660900  -1.77483900
C    3.22887600  -0.05655600   0.58021100
C    4.71553000  -0.15310400   0.73883300
C    5.74004000   0.50114200   1.53487700
O    5.29115300  -0.87588100   1.69614400
H    0.92655800   0.62790700  -0.57148700
H    1.43218300   0.50195100  -2.23936100
H    2.77013100  -0.99311700   0.94541000
H    2.79165600   0.77050400   1.16693900
H    4.59299900  -0.35811700  -1.34185700
H    5.47266000   1.15155800   2.37506200
H    6.75131700   0.61120700   1.13315500