20

C    0.86056100  -0.00288900  -0.20223900
C    2.32989400   0.02006000   0.06078400
C    2.76389400   0.09276100   1.49273200
N    3.20002600  -0.46415200  -0.93218700
C    3.45239300   0.91561300  -1.03323300
C    2.93521100   1.65211400  -2.22433700
C    4.58516100   1.54581600  -0.28233900
H    0.60200400   0.16620200  -1.25486500
H    0.34634100   0.74058500   0.42330300
H    0.46977700  -0.99381300   0.08878600
H    3.80868300  -0.19206000   1.64212600
H    2.13132500  -0.61444400   2.05388000
H    2.57850000   1.09070900   1.91600100
H    2.72328100  -0.86077500  -1.74602400
H    1.97795700   1.26578700  -2.59566900
H    3.67632400   1.56295900  -3.03807600
H    2.83337300   2.72337600  -1.99967700
H    5.11131600   0.84598800   0.37222500
H    4.24618900   2.42044400   0.29173900
H    5.30009900   1.91593300  -1.03534800