17

C    0.64938400   1.77256200  -0.03773000
C    1.96699100   2.07518600   0.63218500
O    3.02354000   1.59896300  -0.19503300
C    4.28306000   1.77101400   0.31723200
C    4.78267200   3.17515700   0.08851600
N    5.69907100   3.70587800   0.78308800
N    6.36114200   4.82540500   0.73384100
H   -0.18042800   2.12716600   0.58880700
H    0.53561100   0.69007000  -0.18637300
H    0.58498100   2.26817000  -1.01624100
H    2.03243400   1.58759000   1.62259800
H    2.08233000   3.16759200   0.79442900
H    4.98230000   1.11955300  -0.24175400
H    4.38230900   1.50947700   1.38909000
H    4.34295800   3.74543400  -0.74969100
H    7.30088200   4.79400200   0.32776700
H    6.20051900   5.48892300   1.49680700