15

O    0.79630500   0.13517300  -0.03542700
C    2.15008100   0.05010700   0.18848600
C    2.80442900   1.36502200  -0.00643500
C    2.10524400   2.42611300  -0.60638600
C    4.18384300   1.54262900   0.38168100
C    4.57077900   1.34087300   1.84745600
O    4.85456400   0.41420800   0.86475400
H    0.39369800  -0.73948600  -0.04551300
H    2.69089900  -0.62993900  -0.51470500
H    2.42462500  -0.34735400   1.19032900
H    1.05686600   2.28669400  -0.88384600
H    2.59009200   3.38929900  -0.78911700
H    4.78037800   2.29175100  -0.15616400
H    3.80138500   1.07048900   2.58083400
H    5.39425300   1.97696400   2.19324000