19

C    2.06132600  -0.43682800  -1.38398200
C    2.22990900  -0.01953400   0.06541200
N    2.84876200   1.26365900   0.22092300
C    2.92557600   2.42254700  -0.64194300
C    3.37834000   3.27288300   0.57669900
N    4.50629100   4.09715000   0.38861500
C    3.43910400   1.91273200   1.37036700
H    1.58054200  -1.42307900  -1.41635400
H    3.03215700  -0.51774500  -1.89248900
H    1.42054000   0.26260700  -1.93921700
H    2.82742400  -0.73795100   0.65237300
H    1.24958100   0.04228900   0.58388700
H    1.97273300   2.66213000  -1.14376300
H    3.69940600   2.29384100  -1.42268700
H    2.53946100   3.87850000   0.94726000
H    5.38179200   3.61637300   0.20771300
H    4.63052600   4.81861700   1.08989100
H    4.46560000   1.53969200   1.54694900
H    2.85365900   1.77674700   2.29555700