13

C    0.91207600   0.05788800  -0.09632500
C    2.32144900  -0.02456000   0.04746800
C    3.55925100  -0.13028800   0.23163300
S    5.39530000  -0.02965800   0.04815800
C    6.02599800  -0.83887200   1.47738700
O    5.59902200  -0.81809300  -1.14091000
O    5.60274600   1.39514100   0.11051800
H    0.55856700   1.10062400  -0.05204300
H    0.47214900  -0.47537500   0.77809700
H    0.56728100  -0.47510300  -0.99787800
H    5.69730700  -0.28650100   2.36723200
H    7.12164900  -0.78106000   1.37459000
H    5.69659600  -1.88586400   1.46185000