20

C    1.90820900  -0.60311900  -1.37178700
C    2.28462700   0.03142000  -0.03781000
C    3.50613600   0.93006700  -0.14019100
C    3.33276900   2.27069500  -0.90157200
N    3.73817700   2.97724400   0.29458900
C    4.02751200   4.34864500   0.55113000
C    3.86870400   1.78291800   1.10135100
H    1.02379300  -1.24444500  -1.26085900
H    2.72597800  -1.22670300  -1.76267100
H    1.66790200   0.15589400  -2.13331300
H    2.49460900  -0.75279500   0.70706800
H    1.43686600   0.61664900   0.36009800
H    4.37546000   0.36895700  -0.51226000
H    2.29850600   2.53784400  -1.19150000
H    3.99287900   2.48824200  -1.75975700
H    3.86476500   4.57238500   1.61427900
H    3.40754300   4.98804600  -0.09201000
H    5.09172500   4.54170400   0.31300100
H    4.87777200   1.68236200   1.53890200
H    3.13540400   1.77708500   1.92998200