13

N    1.00496800   0.04889000  -0.17607400
N    2.33395300  -0.04310500  -0.03514700
C    3.16798000   1.10376300  -0.02340300
C    4.45181500   0.68920800   0.01819300
C    4.41469300  -0.75958400   0.01780400
O    5.49412900  -1.48611900   0.05641100
C    3.06286400  -1.16855700  -0.01967000
H    0.59929400   0.89179700   0.22336800
H    0.49486700  -0.81031000   0.01075600
H    2.72739700   2.09816100  -0.05674700
H    5.34937800   1.30222100   0.04326500
H    5.32357000  -2.43890700   0.04514000
H    2.61961700  -2.16187700  -0.03650700