15

C    0.55654500  -0.35248300  -0.14566600
C    1.98193700  -0.52793900   0.21261600
C    2.45971100  -1.70805900   0.84866300
O    2.90409000   0.34852600  -0.00560800
C    2.74048400   1.63048000  -0.77831500
C    3.92692100   2.46913500  -0.50409900
O    1.79394400   1.76562900  -1.45352900
H    0.17971000   0.62814400   0.18158600
H   -0.04946200  -1.15658200   0.28541600
H    0.44953600  -0.35995600  -1.24412100
H    1.77238800  -2.51851200   1.09992200
H    3.52311800  -1.79941200   1.08455800
H    4.83601900   1.92968300  -0.80759100
H    4.00019900   2.66711300   0.57532400
H    3.83455800   3.40732100  -1.06174200