14

O    0.88626100   0.05676400   0.24708400
C    2.20298800   0.05495800   0.00248300
C    3.03613400   1.02528200   0.82998800
N    3.93595400  -0.05754400   1.18210000
C    3.12553400  -1.14237700   0.78053500
C    3.72824800  -2.27513600   0.14356300
C    4.22052000  -3.23197000  -0.40887800
H    0.38972900  -0.42374100  -0.42768500
H    2.50397500   0.01650400  -1.05717100
H    2.51021200   1.45391900   1.70064200
H    3.53674800   1.83632000   0.27814900
H    4.95692100  -0.03922600   1.12332000
H    2.40397500  -1.41662800   1.57831300
H    4.65792400  -4.08791300  -0.89781400