15

C    2.64806900  -0.65548300  -0.04939800
O    2.30021800   0.61167900  -0.63987700
N    2.82263200   1.68627700  -0.12546700
C    3.74088900   1.79814300   1.00398200
C    3.92058200   3.33088600   1.03694200
N    3.11661800   3.88156200  -0.03366200
C    2.52432400   2.93012500  -0.65253700
H    2.09414700  -1.38498000  -0.64766000
H    2.31435300  -0.68765300   0.99672700
H    3.72893000  -0.82935500  -0.14046200
H    4.66698100   1.24124300   0.79092100
H    3.27398000   1.38036400   1.90984800
H    4.96751700   3.63888400   0.89038000
H    3.59568100   3.77587600   1.99032800
H    1.84668200   3.01139400  -1.50668500