14

C    0.91248900  -0.05332400  -0.43317400
C    2.22856700  -0.25747100  -0.27376200
C    3.06446300   0.79016700   0.32450100
O    2.72860000   1.86341400   0.71689800
C    4.61269400   0.40015200   0.45890700
C    5.44625000   1.56097600   0.97826400
N    5.13159900   0.41735400   1.74000900
H    0.28001900  -0.82489000  -0.87841300
H    0.43952100   0.88378500  -0.12661100
H    2.71165100  -1.18843800  -0.57743600
H    4.93732900  -0.38925300  -0.22852200
H    4.81218800   2.44586500   1.17435800
H    6.49372000   1.73295600   0.71022900
H    5.71292400  -0.26431500   2.23386900