19

C    0.76487600   0.00822100  -0.01785600
C    2.27868700   0.01350600   0.10470000
C    3.09376400  -1.01731400  -0.60118800
C    2.69824500  -1.53287800  -1.93592600
C    3.00965200  -0.38164400  -2.93643500
C    2.71638200   0.98905200  -2.25926700
C    3.10680400   0.82127500  -0.83685900
H    0.37014100   0.95725900   0.36922200
H    0.35800200  -0.80878300   0.59310400
H    0.40608700  -0.11960700  -1.04596200
H    2.63429800   0.14303700   1.13569000
H    4.03465100  -1.34381500  -0.14452300
H    3.25758700  -2.43984300  -2.19495600
H    1.62339800  -1.77195400  -1.95783300
H    4.07467800  -0.42340300  -3.20244300
H    2.42129500  -0.49542900  -3.85695200
H    3.28817500   1.79328200  -2.73760900
H    1.64503500   1.23014800  -2.34290300
H    4.05312300   1.23894000  -0.47566600