15

C    1.55384700  -0.52564400  -0.97041300
C    2.15339700   0.13704300   0.01470700
C    3.27771800   1.13526200  -0.14261000
C    3.73964400   1.55866300  -1.54284300
C    3.60253000   3.03397900  -1.49563300
N    3.07915000   3.47798500  -0.36403000
N    2.87993700   2.45032400   0.39867900
H    0.76817400  -1.24947500  -0.74351900
H    1.81283400  -0.41035500  -2.02597200
H    1.86416000  -0.05837100   1.05290300
H    4.13585400   0.80168200   0.47199800
H    3.10801600   1.15890000  -2.35561700
H    4.77061100   1.25339500  -1.78544700
H    3.86747700   3.74709900  -2.27963800
H    2.45018500   2.60475600   1.31608800