9

S   -0.53185100  -1.31199500  -0.00220000
C   -1.29625100   0.22681100  -0.01881100
C   -0.37500900   1.31135500  -0.03626300
C    0.92953200   0.87218400  -0.03579300
C    1.00729800  -0.54879500  -0.01797900
H   -2.38744900   0.30358000  -0.01550000
H   -0.69325900   2.35473200  -0.04831600
H    1.81402400   1.51062300  -0.04741100
H    1.92284300  -1.14744700  -0.01394600