11

O    3.16173000  -1.20349600   0.00682900
C    2.35768800  -0.36361400  -0.07017200
C    2.86500700   1.25292600  -0.08741300
O    2.04855400   2.07852200  -0.16358000
C    4.41697300   1.31607800   0.00798000
C    4.94443700   2.64512400   0.00078800
C    5.39765500   3.77095100  -0.00491700
H    1.24886100  -0.43990700  -0.13842300
H    4.76550800   0.70449400  -0.84524000
H    4.65379900   0.75840900   0.93341900
H    5.81549200   4.76603600  -0.00885900