15

C    1.03331800   0.10208300  -0.04237700
C    2.49946900  -0.02796700  -0.08424700
C    3.31017100  -1.17626700   0.05304500
C    4.64335200  -0.75933000  -0.05482100
C    5.77910500  -1.54765100   0.01883900
C    4.60680700   0.72542600  -0.26884800
O    3.21007900   1.04473900  -0.26590000
H    0.54821000  -0.87596600   0.04156100
H    0.68290200   0.62368300  -0.94621400
H    0.75191600   0.72960800   0.81889500
H    2.94262900  -2.18863900   0.21225400
H    6.77924200  -1.11906500  -0.07805700
H    5.69451600  -2.62481600   0.17721500
H    5.02305400   1.04831900  -1.23558700
H    5.08562000   1.30532500   0.53528300