13

C    1.04445900   0.09042300   0.00023200
S    2.81030300  -0.17943600   0.00667500
O    3.25948900  -0.64778600   1.29288400
O    3.26620700  -0.66448700  -1.27099000
C    3.48740800   1.84944900  -0.00531000
C    4.87408200   1.80078100   0.00103700
C    6.10010100   1.71968600   0.00694800
H    0.78078300   0.62237800  -0.92172100
H    0.77579700   0.63356700   0.91418500
H    0.61508600  -0.92338600   0.00523200
H    3.00972500   2.18236400   0.92707700
H    3.01778500   2.16858300  -0.94655800
H    7.18021100   1.66353900   0.01207900