17

N    1.09775300   0.03103800   0.55128200
C    2.03542200  -0.05281200  -0.47680300
C    3.10034000   1.12106000  -0.25959600
C    3.99926400   0.86318000   0.93150400
O    3.19250600   0.67489700   2.06419000
C    3.59270700   1.82429800  -1.49077300
N    2.62856800   2.40356300  -0.58876000
H    1.37745700  -0.25050000   1.49390400
H    0.33948200   0.71047300   0.48679500
H    1.56639600   0.09255500  -1.45735200
H    2.59301000  -0.99868400  -0.43398800
H    4.67396800   1.73169900   1.04228800
H    4.62269700  -0.02439500   0.71850100
H    3.73749700   0.52476500   2.84471200
H    3.21473400   1.51200400  -2.46893100
H    4.62089200   2.20241300  -1.48623900
H    2.90852000   3.18771700  -0.00144500