13

C    1.08266700   0.01230200  -0.17161400
N    2.51277300   0.00381200   0.04224900
C    3.29373700  -1.19093200   0.29012400
C    4.69394400  -0.59684900   0.43281700
O    5.71162900  -1.17659600   0.64793900
N    4.59417200   0.81523400   0.26261500
C    3.32024000   1.07877200   0.04406200
H    0.84785000  -0.61551700  -1.04561400
H    0.73623000   1.03882100  -0.33689500
H    0.58623500  -0.42092500   0.71102500
H    3.21816700  -1.89784000  -0.55348500
H    2.95649300  -1.70353700   1.20698100
H    2.92435000   2.08513500  -0.12567700