15

C    2.27534100  -0.78262200   1.58948600
C    2.79945200  -0.59831700   0.15855000
C    2.57242900   0.77960700  -0.33944200
N    3.52317400   1.53558200  -0.72137400
O    3.49305000   2.61470200  -1.39877200
C    4.26575000   3.72593400  -0.85683500
H    2.41756500  -1.82913900   1.88770000
H    1.20259000  -0.55337500   1.66336000
H    2.82314700  -0.14906600   2.30042100
H    2.23891700  -1.25689500  -0.52941500
H    3.86395800  -0.85536900   0.07184800
H    1.55842000   1.21651400  -0.34189600
H    3.93373900   4.59081800  -1.43842500
H    5.32816800   3.51468600  -1.03534800
H    4.04298100   3.82838400   0.21283000