11

C    0.41933200   1.47647900   0.51273100
C    0.85254100   0.34596900  -0.35920800
O    0.85247800  -0.87233800   0.34930800
N   -0.36259700  -1.27371000   0.63963100
C   -1.22913000  -0.38859100   0.15106800
C   -0.57564900   0.70177600  -0.50750800
H    0.65626100   2.49575600   0.19783700
H    0.28117400   1.30436300   1.58448300
H    1.65206100   0.43031800  -1.10327700
H   -2.29890800  -0.56656200   0.28434700
H   -1.03082300   1.32180900  -1.28310200