15

C    0.97090800  -0.01332000  -0.01313100
C    2.41487000   0.02177800  -0.01360500
C    3.63813300   0.05306000  -0.00635300
C    5.04174000   0.04851400  -0.01345900
C    5.69604400  -1.13005900  -0.41274400
C    5.82670500   1.19862300   0.37032200
C    5.28309400   2.37372200   0.76961700
H    0.56531300   0.91433500  -0.44471100
H    0.61190100  -0.08392000   1.02713200
H    0.59499100  -0.87964400  -0.57497300
H    5.12721400  -2.01503700  -0.70788300
H    6.78847100  -1.17875300  -0.43396500
H    6.91340700   1.08768300   0.32728200
H    4.19983200   2.51620700   0.82376900
H    5.91898300   3.21644600   1.05036300