18

C    0.93072300  -0.10867700   0.01982200
C    2.46694700   0.04024100   0.08287100
C    2.82084400   1.49716700   0.12115200
C    2.51714200   2.28976400   1.34577600
C    4.69921300   1.49954300  -0.04998000
O    5.12253400   2.73976600  -0.08115000
H    0.69216700  -1.17479600  -0.09500800
H    0.50406700   0.42925900  -0.83861400
H    0.45242300   0.25254500   0.93998900
H    2.89948800  -0.44491100  -0.80501400
H    2.84898300  -0.47546100   0.97755500
H    2.62083700   2.03121800  -0.82191100
H    2.78494400   1.75798600   2.27016600
H    1.42130300   2.44336200   1.35774500
H    2.97330100   3.28761800   1.33458200
H    4.80375800   0.89897000  -0.96349300
H    4.90557500   1.00829300   0.90914300
H    5.21556200   3.09399400  -0.98049200