8

N    0.95678000  -0.01650700  -0.00000000
C    2.12809700  -0.02111400  -0.00000000
C    3.52227300  -0.03206100  -0.00000000
C    4.24876400   1.17005100   0.00000000
C    5.64294000   1.15910400   0.00000000
N    6.81425700   1.15449700   0.00000000
H    4.03261300  -1.00541500  -0.00000000
H    3.73842400   2.14340500   0.00000000