16

C    0.87046500   0.04115500   0.03571100
C    2.34062900  -0.23152400  -0.03622600
C    3.03308100  -0.85802000   1.14028800
O    2.73284200  -0.59988200  -1.24212400
C    3.06024700   1.66915900   0.02562000
O    4.37144100   1.60863400   0.00393300
H    0.52204700   0.60969900  -0.83647700
H    0.59017700   0.55039200   0.96573000
H    0.35955200  -0.93681700   0.01645300
H    2.78489100  -0.34824800   2.08003000
H    4.12464000  -0.89184000   1.01003200
H    2.67025900  -1.89699800   1.22241700
H    3.63113300  -0.96414200  -1.25128700
H    2.56496000   2.01426500   0.94294700
H    2.62430400   1.95244100  -0.93733800
H    4.76685600   1.65044300   0.88719200