13

O    4.48175800   3.49509800  -2.40802500
C    3.44827700   2.99984000  -1.86642500
O    3.39392400   2.31926100  -0.81156900
C    4.55043800   1.87277300   0.00715700
C    5.64238300   2.88546400   0.13547300
C    5.41234200   4.15613600   0.61516100
C    5.20088900   5.30164300   1.00571000
H    2.49375400   3.18019600  -2.37931100
H    4.89241600   0.94049100  -0.46134300
H    4.06713200   1.63894900   0.96547400
H    5.29718700   3.40234400  -1.86104100
H    6.67405000   2.53776000   0.00565100
H    5.03189500   6.30262900   1.36976000