15

C    0.95525100   0.01308200   0.05595200
C    2.44570600  -0.05057300   0.04815100
C    3.26824300  -1.12808000  -0.08631400
C    4.67424500  -0.68431200  -0.03112200
O    4.59565500   0.72585600   0.14475000
C    3.33670200   1.07889800   0.18888100
C    3.01395500   2.43749000   0.35829700
H    0.52480000  -0.98806400  -0.06523400
H    0.58479900   0.64561500  -0.76446100
H    0.58466400   0.43171000   1.00345600
H    2.96411200  -2.16795600  -0.21590300
H    5.24767900  -1.10683200   0.81322400
H    5.24753000  -0.88650800  -0.95347300
H    3.81012300   3.17952000   0.45069400
H    1.96940000   2.74966300   0.39733100