19

C    1.12401300  -0.25730500   0.35631400
C    2.48489800  -0.11455400  -0.30709600
C    2.83479200  -1.28969300  -1.21510700
C    2.70479300   1.26578800  -0.95172600
C    4.07889600   1.60187300  -1.48460000
C    1.57811100   1.37739200  -2.08163600
O    1.79283200   1.75479500  -3.17103900
H    0.86481000   0.60793900   0.98413900
H    1.10760600  -1.15006000   0.99867500
H    0.31339200  -0.42396300  -0.38015100
H    3.24753900  -0.06674000   0.50237700
H    2.13765200  -1.35527400  -2.06953300
H    2.74666500  -2.23382000  -0.66070200
H    3.85850900  -1.23142300  -1.60748900
H    2.32777900   2.06080800  -0.27551300
H    4.40875400   0.90792600  -2.26870900
H    4.78654900   1.53021600  -0.64440700
H    4.12700300   2.62817600  -1.87092800
H    0.56200700   1.06104600  -1.72058300