12

C    0.96752900  -0.00295300  -0.13779400
C    2.34339300   0.03885400   0.00488100
C    3.27505300  -1.13686700  -0.00092500
O    4.57430700  -0.55476200   0.17959100
C    4.46376900   0.72751600   0.27745000
C    3.14369500   1.18186400   0.18283500
H    0.43490500  -0.94757300  -0.27139300
H    0.38231700   0.91916100  -0.11896000
H    3.29090800  -1.69574400  -0.95004000
H    3.11183300  -1.84687800   0.82532400
H    5.38829600   1.29335500   0.41905800
H    2.82087200   2.22039600   0.23855300