20

C    0.77690800  -0.19831000  -0.38032500
C    2.07362900  -0.84075600  -0.06807800
C    2.41930900  -1.14570800   1.33949800
N    2.88856200  -1.16193000  -1.02185900
C    3.39688600   2.18527500  -0.15439600
C    3.00190000   2.34983700   1.16570000
C    1.75372100   2.80291300   1.56892900
H    0.64108100   0.00878800  -1.44884500
H    0.70909500   0.73801200   0.19648800
H   -0.03735700  -0.84961700  -0.02495200
H    2.34637600  -0.21528600   1.92350700
H    3.41895400  -1.58181800   1.45610700
H    1.66594800  -1.83823200   1.74738400
H    2.67215400  -0.96260500  -1.99688600
H    3.78547000  -1.60448500  -0.82985100
H    2.72956300   2.45661600  -0.97905600
H    4.41563500   1.88271300  -0.40682300
H    3.73406500   2.11663500   1.94819700
H    1.00151100   3.11322300   0.83642600
H    1.50911400   2.93242100   2.62498100