14

C    1.14777000  -0.11087100   0.52160600
C    2.44653900   0.06235800   0.03516100
N    3.01613500   1.23794100  -0.11724300
C    2.64789100   2.65064500   0.10165600
C    4.04484800   3.07749000  -0.40802200
C    4.36725800   1.61178900  -0.61262800
O    5.21858200   0.89105200  -0.97759800
H    0.73746300  -1.11775700   0.62251800
H    0.52378200   0.74025600   0.80709600
H    3.07234000  -0.79218100  -0.25121500
H    2.43732400   2.86030600   1.16008400
H    1.79495600   2.95358500  -0.52228100
H    4.06011400   3.65851000  -1.34098200
H    4.69783400   3.56569900   0.32919800