20

C    0.97963700   0.18956500   0.03510900
C    2.45538900   0.27381700   0.10264700
C    3.47037900  -0.69676200  -1.25140900
N    2.83183800  -1.33212100  -2.21719200
C    3.36283100   0.76714800  -0.98548500
C    2.72757600   1.60423900  -2.08993300
C    4.66828400   1.36963100  -0.46376200
H    0.55887100   1.13112300   0.43573900
H    0.59454400  -0.62171800   0.66809600
H    0.58882300   0.07240700  -0.98418800
H    2.93070800   0.05349300   1.06517700
H    4.15788600  -1.29809900  -0.64898900
H    2.28262800  -0.83582800  -2.91291100
H    2.88470300  -2.34257500  -2.30488600
H    1.76443000   1.21516400  -2.44931000
H    3.41489200   1.68466000  -2.94439800
H    2.53970400   2.61871000  -1.71285200
H    5.13220700   0.73981000   0.30927800
H    4.46736600   2.35659100  -0.02471200
H    5.38614500   1.49410300  -1.28625200