19

C    0.87414800   0.16509400   0.24580900
C    2.38032900   0.29397200   0.05910800
C    2.72107400  -0.52503100  -1.41105600
C    4.13617200  -0.80839300  -1.54294600
C    4.66999800  -2.03310000  -1.27200100
C    2.87165600   1.65896100  -0.09491500
C    4.04513900   2.10419600   0.42874100
H    0.59980900   0.66460000   1.18773900
H    0.56617000  -0.88577500   0.31875100
H    0.31774400   0.64611300  -0.57124500
H    2.94193600  -0.26990900   0.81659800
H    2.32521000   0.15455200  -2.17674900
H    2.10352200  -1.42822800  -1.31892700
H    4.79875600   0.00063800  -1.87122600
H    4.05415800  -2.84948700  -0.88096100
H    5.72588700  -2.24533400  -1.45865100
H    2.23834600   2.35601200  -0.65695800
H    4.73109100   1.42821700   0.94982800
H    4.33083300   3.15712300   0.36329300