18

O    2.53120700   1.00987800  -1.58976500
C    2.23760800   1.70987400  -0.41435400
C    3.15638000   1.15641400   0.66505100
C    4.60788400   1.22151200   0.16273300
C    5.42952700   2.53131900   0.21769800
C    6.46367800   1.75132500   1.05662900
N    5.59628900   0.60361600   0.98716700
H    2.00748500   1.34537900  -2.32393200
H    1.19344400   1.56160500  -0.08496600
H    2.39681800   2.79935800  -0.52842300
H    2.89897300   0.10251500   0.85399800
H    3.04958800   1.71759600   1.60513100
H    4.57911800   0.73727200  -0.84320400
H    4.93431200   3.34403100   0.76440400
H    5.79062100   2.90210200  -0.74824900
H    7.45087500   1.55206300   0.60061300
H    6.64063800   2.08014300   2.09713400
H    5.65504300  -0.33284400   1.40071400