16

N    2.08069800  -0.35119600  -0.85073900
C    2.72334100  -0.22541000   0.43101400
C    3.56986000   1.01993300   0.52148100
O    4.06832500   1.41356100   1.67179100
C    4.00480400   1.80335400  -0.65725700
C    2.77026000   2.57676100  -0.40928000
O    2.70880200   3.65405500   0.31899000
H    1.08815000  -0.54890600  -0.77064900
H    2.49458600  -1.07455300  -1.43149700
H    3.40399500  -1.06764200   0.67095700
H    1.98806600  -0.20038900   1.25499600
H    3.66726700   0.96471900   2.43158700
H    3.95640300   1.23893300  -1.59437400
H    4.94796200   2.34531400  -0.50729000
H    1.82050100   2.25339600  -0.84426700
H    3.57406100   3.96693300   0.62510600