15

N    2.01022300  -0.29181900  -0.70008900
C    1.54711300   0.92762600  -0.27655900
C    1.69562400   1.00689200   1.39348800
O    0.69200900   0.88256600   2.01757500
N    2.97130500   1.06968100   1.78457100
C    4.05733200   2.00069300   1.55267400
C    3.56455700   1.71147500   2.93612100
H    3.00646100  -0.48525400  -0.77389800
H    1.38364800  -1.08992500  -0.78604000
H    0.48035900   1.07900400  -0.46938600
H    2.16837900   1.76953200  -0.61829100
H    3.80041300   2.97108600   1.11442900
H    4.99631000   1.55674900   1.21147900
H    4.14325000   1.04982000   3.58597900
H    2.96342100   2.47322700   3.44140200