15

C    2.53456300  -0.71689200  -1.43330200
C    2.35941200  -0.02414100  -0.08027400
C    2.90589700   1.37159500  -0.04113200
C    2.28524900   2.55754100   0.23944500
C    3.19184900   3.73898400   0.16013400
C    4.46136900   3.39712000  -0.18449100
S    4.57171700   1.69422900  -0.40690100
H    2.09301300  -1.72138700  -1.39758300
H    3.59768500  -0.83852200  -1.69544100
H    2.03956100  -0.15552900  -2.23845300
H    2.83590300  -0.61622100   0.71819500
H    1.29376300   0.04429800   0.18346500
H    1.22765000   2.63595300   0.49896500
H    2.86406800   4.76117200   0.35852400
H    5.33583500   4.03366200  -0.32016900