19

C    1.72005600   2.79874700  -0.91324700
O    2.25176600   1.49953500  -1.02048600
C    3.06083800   1.05910300  -0.04263200
C    4.64795600   1.36550800  -0.41547200
C    4.94700800   2.79149000  -0.50129000
C    5.00070400   3.69016900   0.75093600
C    6.28796100   3.29532400   0.19330900
H    1.07477500   2.96322000  -1.78182500
H    2.55099600   3.53259900  -0.91442700
H    1.15473300   2.91103000   0.02553700
H    3.03187800  -0.03941200  -0.01278700
H    2.87161700   1.52323000   0.93896800
H    4.81078500   0.82913500  -1.35937600
H    5.16047500   0.85841000   0.41630200
H    4.73988200   3.28694700  -1.45348800
H    4.67795700   3.21671700   1.68343600
H    4.65184300   4.71438500   0.59726100
H    6.84821800   3.98894300  -0.43842200
H    6.87981500   2.52039300   0.68478500