12

O    0.93660700  -0.07443100  -0.00881900
C    2.25662800   0.06009300  -0.00165800
C    3.11640100   1.11492100   0.00509700
N    4.43042200   0.59860400   0.01081900
C    4.45060200  -0.72137100   0.00806800
C    3.07561800  -1.13628700   0.00001600
O    2.67592000  -2.36485900  -0.00472100
H    0.46310400   0.76680700  -0.00945800
H    2.94002500   2.18735100   0.00649900
H    5.26170100   1.18480800   0.01641300
H    5.35445500  -1.32763600   0.01146000
H    1.70335300  -2.42669700  -0.00991600