12

C    0.95145300   0.73820900  -0.15462200
C    2.39518600   0.39192300  -0.02977600
N    2.86171200  -0.77574200   0.23964400
N    2.22764800  -1.87119000   0.45566400
C    2.62965100  -3.04103600   0.72356800
C    3.38300500   1.42054700  -0.21899900
N    4.13856700   2.28036900  -0.37955000
H    0.71739500   1.53397800   0.57105700
H    0.30990900  -0.13391100   0.01279300
H    0.77681700   1.15828000  -1.15845600
H    1.87135400  -3.81866000   0.86623000
H    3.70239300  -3.26904700   0.81012700