19

C    3.27189600  -1.40091400   0.05984700
C    2.54775100  -0.21633500   0.68589200
C    3.13982300   1.15359500   0.39485900
C    2.47786500   2.33780100   1.06552400
C    4.71243100   1.10512500   0.89450100
C    5.74423700   1.19009300  -0.20435200
O    4.91476300   1.01611100   2.05037300
H    2.69840700  -2.32287200   0.22171000
H    4.26341200  -1.56692300   0.51268300
H    3.39461200  -1.27684600  -1.02711200
H    2.42862800  -0.34548400   1.77272700
H    1.52485300  -0.14591600   0.26866900
H    3.26781500   1.31550200  -0.68763000
H    2.35301500   2.18245500   2.14534700
H    1.48057700   2.44964700   0.60912200
H    3.01557700   3.28037300   0.88955700
H    5.59672900   2.15546700  -0.71235900
H    5.53575500   0.38035600  -0.91855700
H    6.74936000   1.10940000   0.22501500