19

C    1.01783200  -0.11243900  -0.04302900
C    2.54609400  -0.14493100   0.08462200
C    3.07711100   1.26611700   0.11708700
C    4.75742100   1.39339800  -0.03291000
C    5.14148400   2.85203100  -0.24339300
C    5.21340400   0.78950800   1.14863100
C    5.56093300   0.26951400   2.21910400
H    0.63132500  -1.14102700  -0.06186200
H    0.69802600   0.38234400  -0.97170700
H    0.55308400   0.40992600   0.80550300
H    2.97272200  -0.69396000  -0.76984200
H    2.83139300  -0.69090600   0.99686500
H    2.80161800   1.82514500   1.02213600
H    2.79298800   1.85189600  -0.77138500
H    4.94885700   0.74437000  -0.90433000
H    4.84895700   3.47650400   0.61174000
H    4.65983400   3.23595400  -1.15159400
H    6.23148900   2.92693800  -0.37254500
H    5.88486300  -0.18904800   3.14434700