17

C    1.05922100   0.02556600  -0.03850800
C    2.55129200  -0.10905900  -0.08172800
C    3.28606800  -0.61315000  -1.27325700
C    3.34192800   0.86848600  -1.02744400
C    4.56962200   1.56153200  -0.42146800
N    5.36787400   1.79217000  -1.57094300
H    0.74508000   0.82777300   0.64410300
H    0.63217800  -0.91721900   0.34166100
H    0.63196700   0.21108600  -1.03387700
H    3.04001700  -0.26991700   0.88464400
H    2.70925700  -0.94559400  -2.13994400
H    4.19427600  -1.19239800  -1.07638400
H    2.73196100   1.51206200  -1.66790100
H    5.08609900   0.89257400   0.28137500
H    4.31131400   2.50503600   0.07348800
H    5.85188400   1.01672400  -2.02445100
H    5.25267900   2.63697400  -2.13216100