17

C    0.80290400  -0.16460200  -0.10389200
C    2.34526100  -0.08545500   0.01373100
C    3.02268500  -0.82830300  -1.16448800
C    2.75139800   1.32228200  -0.01707800
C    3.43905800   1.97744500   1.01259600
C    3.78919000   3.30791100   0.91294200
C    4.10459500   4.49472100   0.83048700
H    0.30296100   0.34441900   0.73115500
H    0.51387000  -1.22470300  -0.08366300
H    0.45085800   0.26946700  -1.05120400
H    2.66260100  -0.54230300   0.96382400
H    2.71497100  -0.40749000  -2.13298300
H    2.70594100  -1.88011900  -1.13102200
H    4.11814300  -0.79628800  -1.09171800
H    2.49759100   1.90537300  -0.91339400
H    3.71111800   1.43113000   1.92411700
H    4.38325900   5.53730100   0.76136200