21

C    2.92216200  -1.14220200  -0.65653400
C    2.40303000   0.14944500   0.02276700
C    3.45019600   1.18734700  -0.06633600
C    3.48600200   2.31643300  -1.03446900
C    2.61611200   2.27963200  -2.27655100
C    2.92727900   2.91500700   0.20674200
C    3.70151600   3.66402300   1.21117200
H    2.15411400  -1.92046900  -0.55730600
H    3.84282500  -1.50681000  -0.18045900
H    3.11612300  -0.98121800  -1.72561500
H    2.19926000  -0.07331200   1.08302300
H    1.46583900   0.46971100  -0.45197500
H    4.35088200   1.02969600   0.53925900
H    4.51894000   2.65167200  -1.20612100
H    1.57037800   2.02777100  -2.05472100
H    3.01119000   1.54188200  -2.98780500
H    2.63182000   3.26664900  -2.75748700
H    1.83477700   2.90991800   0.30661800
H    4.78723600   3.54243500   1.10534700
H    3.38033800   3.42698800   2.23748900
H    3.45940700   4.73587800   1.06545500