10

C    0.84007600   0.05031200  -0.00368700
C    2.04901200   0.09978900  -0.00064700
C    3.45791800   0.12661200   0.00289300
C    4.34827000   1.16616400   0.00447300
C    5.74154600   0.66059800   0.00831900
N    5.89115800  -0.63886700   0.00953200
S    4.41266800  -1.34831300   0.00625400
H   -0.23841600   0.01532400  -0.00649200
H    4.07646400   2.22271400   0.00310700
H    6.62959100   1.30241500   0.01014800