15

N    3.03329200  -0.67258300   1.04475500
C    2.23081300   0.17050400   0.20138000
C    2.80042500   1.55191300  -0.03779000
C    1.91769600   2.61889900  -0.33035400
N    4.10102800   1.81900800  -0.03559100
C    5.28007800   0.96596400   0.13479000
O    6.33541900   1.48514400  -0.00379700
H    2.87025400  -1.65771300   0.85378000
H    2.85094000  -0.51537900   2.03390900
H    1.18632200   0.31308100   0.53465400
H    2.15140500  -0.27934100  -0.80641900
H    0.83829500   2.45426200  -0.33770000
H    2.29059400   3.62020700  -0.56309900
H    4.38954200   2.78380700  -0.22926400
H    5.03296900  -0.07767700   0.39134500