16

C    0.90898000   0.02409300   0.00050200
C    2.37252000   0.10338800   0.29858000
C    2.95730200  -0.75849500   1.37263500
C    3.20710100  -0.80352600  -1.46676700
O    4.48994500  -0.77251000  -1.36525300
C    3.01777300   1.35788200   0.06046300
N    3.59361600   2.32770100  -0.21517000
H    0.61800500   0.58895400  -0.89513100
H    0.37974200   0.48290200   0.85749500
H    0.56680300  -1.01799600  -0.06626000
H    2.66370800  -0.31367500   2.34249400
H    4.05459200  -0.78492700   1.34665200
H    2.54471300  -1.77614900   1.34125900
H    2.69412900  -0.12435400  -2.15993400
H    2.75777500  -1.77069900  -1.21884700
H    4.89433000   0.03697200  -1.72607600