15

C    0.81443800  -0.25166200  -0.09804700
C    2.28428400  -0.19738800   0.06121300
C    3.02693500   0.93021500   0.09203000
C    4.46215000   0.83408800   0.25420400
O    5.17960500  -0.11984100   0.37627000
N    5.14877200   2.13317500   0.27096400
N    6.44041200   2.10587600   0.41383300
H    0.56259600  -0.85798900  -0.98343400
H    0.35501100   0.74016500  -0.19332100
H    0.37057100  -0.77929200   0.76192700
H    2.81529100  -1.15209500   0.16270500
H    2.56627800   1.91775600  -0.00322300
H    4.68063800   3.03544400   0.17950300
H    6.83834200   1.16030600   0.50021500
H    6.98588700   2.96455600   0.43579000