18

C    1.43854200   0.22576700   1.41119300
C    1.91661300   0.55816100  -0.01779100
C    3.02098600   1.55579600   0.01766900
C    2.76002500   3.01875300   0.18874900
C    2.61387200   3.64917400  -1.21398000
N    4.23692900   1.10365400  -0.03913900
O    5.24733300   1.79873100  -0.44325900
H    0.60660300  -0.48690500   1.33955300
H    1.07835600   1.11775800   1.94198600
H    2.24206700  -0.23908400   1.99780200
H    1.09128400   1.00915900  -0.59055600
H    2.24670400  -0.35411500  -0.53300200
H    3.58119900   3.49692300   0.73945600
H    1.83205500   3.13947000   0.76432900
H    3.53625600   3.55592100  -1.80284200
H    2.40278900   4.71909700  -1.08019100
H    1.78215800   3.20391200  -1.77647400
H    6.04965900   1.43953400  -0.01451400