13

C    1.69331700  -0.70320500  -0.30495900
O    3.09255000  -0.34021700  -0.41052000
N    3.36992100   0.85868800  -0.07109500
C    4.68935500   1.10662800  -0.02845100
C    5.76085300   0.09218300  -0.05199700
C    4.98434300   2.48739500   0.12624500
N    5.26339900   3.60875500   0.24288400
H    1.67958700  -1.64861700   0.25237400
H    1.34638900  -0.86706500  -1.33466500
H    1.15053400   0.10410300   0.19863900
H    5.44453300  -0.81668100  -0.57960100
H    5.99433800  -0.18431700   0.99536200
H    6.67946300   0.51479800  -0.48140600