18

C    0.98252000   0.01783000   0.03042300
C    2.48852200  -0.13792400   0.01799300
C    3.01098800  -1.29842100  -0.84530000
C    3.38390000  -0.69373500  -2.16328500
C    3.43531000   0.63858400  -2.14192100
C    3.12424600   1.21958500  -0.78782300
N    4.23896800   1.67000800  -0.10295700
H    0.65570300   0.89023100   0.61320500
H    0.55634000  -0.87658600   0.51341100
H    0.57259300   0.08411200  -0.98802400
H    2.89001600  -0.14736900   1.04017100
H    2.23088000  -2.06958900  -0.94943000
H    3.88025700  -1.79599300  -0.38423000
H    3.60327000  -1.29808400  -3.04566500
H    3.69430500   1.29272600  -2.97691500
H    2.32994400   1.97949500  -0.73670000
H    5.15668300   1.25358700  -0.27536600
H    4.17336700   2.36259100   0.64479800