17

C    1.94009200  -0.39393300   1.03239400
O    3.17865500   0.25849300   0.79982700
C    3.13428900   1.58751100   0.35715500
C    2.38780700   2.54538200   1.26801200
C    4.62213300   1.97733100   0.21354200
N    5.39401900   0.84363400  -0.08552600
H    2.16776700  -1.45065500   1.21080300
H    1.28142200  -0.30681600   0.15273400
H    1.43170300   0.01695500   1.91739600
H    2.69662900   1.62501400  -0.66173800
H    2.74471300   2.45687400   2.30509800
H    1.30859800   2.34585600   1.24895200
H    2.53174300   3.58175900   0.92871800
H    4.98559100   2.34207300   1.21041400
H    4.82390800   2.80151400  -0.48938800
H    4.96386300  -0.05258300   0.20381700
H    6.31826600   0.88493200  -0.52139400