20

C    0.54732000   0.89270800  -0.16329000
C    1.94991600   0.40249300  -0.15795600
C    2.87728200   0.71126100   0.97221500
C    4.09291600  -0.22923600   1.00941500
C    3.69399100  -1.66338900   1.08979500
C    2.72728000  -2.12039900   2.11615900
N    4.19965300  -2.51785400   0.25887700
H   -0.06813200   0.35880700  -0.90103500
H    0.49965600   1.96684600  -0.43118600
H    0.07246500   0.79762400   0.82666900
H    2.40077700   0.10986500  -1.11482100
H    2.34067700   0.67852600   1.93577900
H    3.26860200   1.74528300   0.90097300
H    4.73847500  -0.06586100   0.13277700
H    4.70477500  -0.02386200   1.90614500
H    1.73348200  -1.73502900   1.83310000
H    2.97675100  -1.67832500   3.09130500
H    2.67460500  -3.21298800   2.20094700
H    4.84846400  -2.22729800  -0.47102400
H    3.96506500  -3.50858900   0.29948000