18

C    1.25858200  -0.53233500   0.88335600
C    2.74872800  -0.34497600   0.59742800
C    3.12288200   1.12001800   0.47897800
N    3.08219800   1.84181500   1.63004100
C    4.82693100   1.15137600  -0.23757600
N    5.72005900   0.40050400   0.44899500
H    1.01909900  -1.60281700   0.93793800
H    0.63990200  -0.09019600   0.08900900
H    0.96962000  -0.07004000   1.83792700
H    3.01494400  -0.85827600  -0.33895500
H    3.35519200  -0.80467600   1.39608900
H    2.64427900   1.65270700  -0.35619300
H    3.21354000   1.39815800   2.53341400
H    2.96529300   2.84900300   1.62758600
H    5.03121500   2.22707100  -0.22010500
H    4.58430500   0.76077800  -1.23325000
H    6.25720600   0.78315900   1.21905300
H    5.82643100  -0.59181600   0.26878900