14

C    1.02599400  -0.01711100  -0.08063800
C    2.48939600   0.23409200   0.03381700
O    3.34906100  -0.46076000  -0.87034900
C    3.30274700   0.87480200  -1.05010000
C    4.56131000   1.74098100  -0.59779800
N    4.35405400   2.75397800   0.21265300
O    5.58922900   1.37867900  -1.12435300
H    0.46529200   0.74765400   0.47545800
H    0.79158900  -0.99450000   0.36922800
H    0.69625100  -0.02658000  -1.12792500
H    2.91756700   0.31848300   1.04143200
H    2.96332600   1.24516300  -2.03005300
H    3.42813900   2.95677300   0.57513900
H    5.12533200   3.36849100   0.46909900