12

C    0.99109700   0.01527300  -0.15975700
C    2.33298200  -0.06682500   0.05003200
C    3.16807600  -1.20489000   0.19222000
C    4.49262800  -0.74466400   0.39345200
N    4.53828000   0.57863800   0.38637900
C    3.22087100   1.14133500   0.17537000
O    2.98556900   2.30124800   0.12627100
H    0.50948000   0.99412800  -0.24519700
H    0.37232000  -0.88129000  -0.24650100
H    2.87395100  -2.25309500   0.15765200
H    5.38884400  -1.35105600   0.53942700
H    5.37248700   1.15309800   0.51004300