20

C    2.63024500  -1.04705900  -0.58635800
C    2.63740900   0.24254400   0.23385200
C    3.86925700   1.05916100  -0.06087900
C    4.03287700   2.13127000  -1.17512800
C    2.99416800   2.56861900  -2.16554300
N    3.88797000   2.45105800   0.20112500
C    3.03774800   3.33668900   0.93165000
H    1.73597000  -1.63695800  -0.34635100
H    3.51038200  -1.66792100  -0.36534500
H    2.61729200  -0.83801900  -1.66586200
H    2.62645800   0.00983700   1.31091500
H    1.73356000   0.83711200   0.02886400
H    4.82918100   0.55642900   0.12867900
H    5.07500300   2.16480400  -1.52279700
H    1.97186700   2.41513400  -1.79460300
H    3.12232100   1.98700000  -3.08877800
H    3.12459800   3.63027600  -2.42135600
H    3.06711400   3.07615400   1.99712500
H    1.99762900   3.23866600   0.56647700
H    3.36605700   4.37127400   0.76272600