11

C    1.05109500  -0.10018700  -0.39979700
C    2.41909800  -0.03760300  -0.13999500
C    3.11441600   1.18613900  -0.08382000
N    2.48923300   2.36804100  -0.27955600
O    3.37744200   3.27993500  -0.16647300
N    4.65166000   2.77780100   0.11135300
C    4.50305800   1.49902100   0.16403700
H    0.54081900  -1.06694300  -0.43664500
H    0.46531200   0.80907300  -0.57063500
H    2.98504700  -0.95912100   0.02780400
H    5.34484700   0.83716000   0.36849800