16

C    0.95646400   0.43165900   0.12153400
C    2.25302200   0.16436500  -0.03046500
C    3.32780500   1.25758400  -0.07835200
N    3.81757800   1.44865200   1.26594000
C    3.64424600   2.78350800   1.74670800
C    3.05655800   3.49164500   0.56602600
C    2.88953900   2.64359100  -0.45189100
H    0.22566900  -0.38062700   0.13481100
H    0.57189900   1.45192400   0.20795900
H    2.61883200  -0.86293400  -0.11298200
H    4.16265900   0.89401200  -0.71299500
H    4.17024700   0.68171500   1.84210500
H    4.62655300   3.18151900   2.08183100
H    3.01076200   2.78751800   2.65879100
H    2.82172800   4.55557900   0.57590300
H    2.48795200   2.87712800  -1.43741600