14

O    2.16119900   0.03895600  -1.25997300
C    2.28580100   0.01966800   0.12574000
C    3.24324400   1.12013900   0.48297200
N    4.11862300   1.57384200  -0.52249600
C    3.19303000   2.55050200  -0.19003300
C    3.59324500   3.67976100   0.80346800
O    3.11614100   4.75171300   0.67969400
H    1.53355000  -0.62480400  -1.56482800
H    2.69467600  -0.93296500   0.51579900
H    1.33863200   0.21341700   0.66565700
H    3.59948100   1.17989300   1.52140000
H    4.10067400   1.13792200  -1.45346700
H    2.47366700   2.86944800  -0.95306100
H    4.32998100   3.39175200   1.58890800