16

C    1.98765800   4.40160100   2.36031700
O    1.87274600   3.00341600   2.17952600
C    2.98109300   2.24121500   2.07529300
C    2.92120400   1.50016100   0.66845400
O    4.10840200   2.93227600   2.28137100
C    5.36375800   2.25044700   2.32266400
H    2.56340900   4.83605500   1.52377700
H    2.54890500   4.60671300   3.28870900
H    0.96866900   4.79524700   2.39969900
H    2.84960500   1.39287100   2.80514700
H    3.04830000   2.27170400  -0.10208600
H    1.94783500   1.00593500   0.57999800
H    3.73474900   0.76549900   0.64234300
H    6.05629500   2.91832000   2.84478400
H    5.72267200   2.07951400   1.29635600
H    5.27401000   1.29791000   2.86485500