12

C    0.93195500  -0.05702400  -0.00515200
C    2.39960300  -0.00688500  -0.00224900
C    3.24951800   1.16020400  -0.00352800
O    2.91728100   2.39041100  -0.00636500
O    4.50668500   0.76343800  -0.00095300
C    4.43726200  -0.60956100   0.00170400
N    3.22688700  -1.07437200   0.00108700
H    0.48310100   0.94262400   0.00299200
H    0.58533800  -0.63211400   0.86965900
H    0.58875000  -0.61444100  -0.89295700
H    3.66827100   3.01304300  -0.00646500
H    5.38690600  -1.14603400   0.00414700