14

C    1.58023500  -0.09142200  -1.16494700
C    2.39621900   0.02996500  -0.09064400
C    3.45047600   0.99941400   0.03543700
N    3.92989600   1.80480200  -1.00594600
C    3.18373800   2.74018300  -0.25903300
C    3.75825300   3.53336000   0.74635900
C    4.21048900   4.24302400   1.62387900
H    0.80704200  -0.86268900  -1.19117400
H    1.63393700   0.56426500  -2.04044300
H    2.27618700  -0.64655900   0.75917700
H    4.07820500   0.97452500   0.93167500
H    3.53427200   1.59831800  -1.92523900
H    2.18359900   3.01371500  -0.62198200
H    4.62081600   4.88060000   2.39227300