20

C    0.79786800   0.06243000   0.63021400
C    2.25439500   0.26666200   0.74338400
C    3.06305400   1.05856700  -0.05502900
C    2.55903600   1.99685900  -1.08553500
C    4.54532900   1.00349500   0.18426900
C    5.17313200  -0.39654600   0.10593800
N    5.28787300   1.93743000  -0.55474200
H    0.57614200  -1.01708900   0.59210900
H    0.33110100   0.56065400  -0.22607900
H    0.31651100   0.42202200   1.55811600
H    2.74332700  -0.28639000   1.55455100
H    1.51422400   1.81819100  -1.36010900
H    3.21022100   1.93778600  -1.97623500
H    2.62760300   3.04118600  -0.72942800
H    4.55930600   1.29441100   1.28101600
H    5.09706400  -0.77821400  -0.92150100
H    4.67925200  -1.10449500   0.78178700
H    6.23199500  -0.34226700   0.39443000
H    5.01263300   2.91352200  -0.56838000
H    6.28355800   1.77890000  -0.66582500