14

C    0.95277100   0.14262500  -0.20936100
C    2.29093600   0.07363200   0.09278700
C    3.09460000   1.20132100   0.08978000
C    3.81260700   2.21047200   0.10996800
C    4.64431600   3.33534400   0.09360200
C    4.58673200   4.23160600  -1.20346300
N    4.02766600   4.66469200   0.01443300
H    0.33534500  -0.75914700  -0.19745600
H    0.47497900   1.09262300  -0.46394100
H    2.75579200  -0.88431600   0.35113900
H    5.63616600   3.22035200   0.54456500
H    3.88961000   3.90599100  -1.98055000
H    5.56118600   4.59836400  -1.54540200
H    4.62019600   5.34047800   0.50062200