17

C    1.03256700   0.94931200   0.69627900
N    2.41291900   1.29160000   0.63813200
C    3.21473800   0.59908400  -0.13190000
N    4.49508800   0.94822300  -0.16006800
C    5.23792800   2.00606100   0.52970600
C    6.52093200   1.52605800  -0.18409900
C    5.66897400   0.43694800  -0.87200000
H    0.44838200   1.84874000   0.43093700
H    0.77398000   0.75839400   1.75326900
H    0.72953900   0.09631300   0.06771600
H    2.91806900  -0.25470900  -0.76327900
H    5.18932300   1.88665600   1.62282600
H    4.85449300   3.00445700   0.26944400
H    6.96209700   2.25785000  -0.87005300
H    7.29746700   1.13927900   0.48532900
H    5.54797400   0.51163000  -1.96422700
H    5.88388400  -0.60974200  -0.60483100