17

C    0.95512800   0.07807800   0.08537000
C    2.46293800   0.00711300  -0.06426500
C    3.01240600  -1.38383200  -0.55065900
C    2.71570900  -1.43425500  -2.07093600
O    3.24322000  -0.28650400  -2.66492000
C    2.61149000   0.90500700  -2.28106200
O    3.02252700   0.95764500  -0.93333100
H    0.65018300   1.10607300   0.32568700
H    0.66298800  -0.56512300   0.92670900
H    0.39260000  -0.25960200  -0.79625900
H    2.97313400   0.19565400   0.89662600
H    2.52701500  -2.20717500  -0.00905500
H    4.09727400  -1.43195300  -0.38606600
H    3.25794800  -2.28925400  -2.50310300
H    1.63201600  -1.50939700  -2.26163400
H    3.07196700   1.74007600  -2.81628600
H    1.51802300   0.86367200  -2.40130800