17

C    0.85105000  -0.06191000   0.04412400
C    2.36598400  -0.10763100  -0.03774000
C    3.05550400   0.10941800   1.29680700
C    2.91907700  -1.29984700  -0.84828600
C    3.54437400  -0.68887000  -2.03425400
C    3.38611500   0.70217700  -1.94552100
O    2.76134400   1.07008500  -0.89480200
H    0.39083900  -0.15639000  -0.94980600
H    0.51581400   0.87493800   0.50815300
H    0.50694700  -0.89930800   0.66762600
H    4.14893200   0.13603000   1.18579500
H    2.79424600  -0.72171300   1.96715700
H    2.71809700   1.04594600   1.75992500
H    2.13373800  -2.01906700  -1.14799500
H    3.65746500  -1.89982100  -0.28371000
H    4.04781900  -1.21196000  -2.84898500
H    3.71939600   1.47942300  -2.63957500