18

C    2.45557800  -0.49969400   1.53149800
C    2.68621200  -0.07799600   0.07768000
C    3.16388100   1.33136300  -0.06737500
C    4.27689700   1.78799400  -0.67561700
C    4.35797400   3.27035700  -0.58902100
N    3.18730600   3.63492700   0.13178400
C    2.40834900   2.50000500   0.49339600
H    2.15230900  -1.55405800   1.57373500
H    1.65442900   0.08501700   2.00980000
H    3.37154400  -0.38961000   2.13030900
H    1.74805300  -0.18661900  -0.49335600
H    3.41832600  -0.74271300  -0.40222900
H    5.03302500   1.18382800  -1.17604400
H    5.26479600   3.65643300  -0.06954600
H    4.37884900   3.79078700  -1.57406400
H    2.93766100   4.59564100   0.36494500
H    1.37091400   2.59957300   0.10394200
H    2.27998900   2.46178300   1.59854300