20

C    2.52629100  -1.40392800   1.42723000
N    3.13005600  -1.05026800   0.16967500
C    3.23183700  -2.03686300  -0.87312300
C    3.63904500   0.28835600  -0.04204700
C    5.16772000   0.30580200  -0.19610100
C    5.91738200  -0.17075700   1.04030100
O    7.26932400  -0.08664800   0.73669000
H    3.11297900  -0.97836300   2.25464000
H    2.44541300  -2.49278000   1.52571200
H    1.51455600  -0.95832600   1.46887400
H    4.00274300  -2.77737000  -0.59133600
H    3.50648000  -1.56854000  -1.82475200
H    2.27370600  -2.57182800  -0.96627200
H    3.31435900   0.91540600   0.79949300
H    3.17617000   0.67212400  -0.96734900
H    5.45850200   1.34288500  -0.41906200
H    5.47719400  -0.29692800  -1.06389000
H    5.61047100  -1.21205400   1.28696500
H    5.63191200   0.45973000   1.90697200
H    7.80001100  -0.23756400   1.52422700