19

C    0.81516800   1.38537700   0.29230300
N    2.25164600   1.19377400   0.44603600
C    3.17111800   1.72213700  -0.32023800
N    2.80042000   2.60318600  -1.25706600
C    4.64056600   1.41704900  -0.09599700
C    5.14316700   0.49382500  -1.21597000
C    5.46412400   2.70413100   0.02622400
H    0.38106400   0.57076000  -0.30466600
H    0.63812000   2.34250200  -0.21802800
H    0.35183600   1.39552700   1.28556200
H    2.57144900   0.56781500   1.18312200
H    3.26236300   2.51712000  -2.16976500
H    4.69185500   0.87281100   0.86162100
H    5.15895700   1.00537700  -2.19040000
H    4.53912200  -0.42038300  -1.30506500
H    6.17594600   0.19464400  -0.98956300
H    5.46686900   3.27617000  -0.91389600
H    6.50517000   2.44213200   0.25766900
H    5.08936400   3.35455200   0.82848100