12

O    1.90991900   0.08606700  -1.57367700
C    1.84806100   0.48751900  -0.42817700
C    0.78294300   0.15243700   0.48584200
N   -0.06856700  -0.08751600   1.23012400
C    3.00077400   1.29624700   0.01592100
C    4.00857000   1.94461700  -0.95061200
C    2.90076900   2.81759400  -0.61750900
H    3.31245400   1.14646000   1.05604800
H    4.04116000   1.52281900  -1.95853200
H    4.97469800   2.10893400  -0.46496600
H    2.94944400   3.52139200   0.22239600
H    2.09006400   2.96898300  -1.33662700