11

N    1.13574500  -0.14752400   0.29159000
C    2.33846600   0.02814700   0.00365200
N    3.22641000  -1.07387500  -0.20963000
C    4.45715200  -0.68964700  -0.50421500
C    4.55671100   0.72042300  -0.52760100
C    3.21735400   1.25876300  -0.20657900
O    2.85388400   2.39702700  -0.11902300
H    0.63066200   0.73902200   0.41245000
H    2.91004800  -2.04502900  -0.13435100
H    5.24950100  -1.41754600  -0.69440600
H    5.45387600   1.30212900  -0.74213800