13

N    1.07150300  -0.09348500  -0.15142700
N    2.32101700   0.01476600   0.12802900
C    2.90777800   1.20822600   0.09686000
C    4.36546800   1.32139100   0.42437300
O    4.64071000   2.71596900   0.29118300
C    3.55068700   3.33179600  -0.05311900
C    2.44515300   2.50499700  -0.19628400
H    0.67224500  -1.02956700  -0.11245200
H    0.46405100   0.68949800  -0.40629800
H    5.01615100   0.76865700  -0.27190900
H    4.60939900   1.01372300   1.45371500
H    3.62479900   4.41333600  -0.18927600
H    1.45143400   2.84596700  -0.47873600