18

C    0.62542900   1.07897400  -0.34141200
C   -0.50873400   0.20025300   0.09995200
C    0.85539000  -0.39225000  -0.14092200
C    1.71434500  -0.90195400   0.98524100
C    1.66280300  -0.18815200   2.36260300
N    1.31661500  -1.44317500   2.96689300
C    1.22939700  -2.17467400   1.73624300
H    0.62581600   1.46098900  -1.36389700
H    1.04845300   1.77887000   0.38585600
H   -1.29747500  -0.03421700  -0.61758900
H   -0.87654300   0.30963900   1.12596000
H    0.96754100  -0.98936800  -1.05109300
H    2.75716000  -1.01857700   0.65492500
H    0.86252100   0.56481700   2.51123300
H    2.59077100   0.24288800   2.78133700
H    1.26562800  -1.73966300   3.94825500
H    1.84310300  -3.09381900   1.73679100
H    0.18179400  -2.47287700   1.52294700