15

O    2.18712500  -0.11978100  -1.50339800
C    2.34793800   0.02269600  -0.13200100
C    3.28813700   1.23232100   0.04928600
C    3.47397500   1.74430400   1.48000700
N    3.06854600   3.13689800   1.33595900
N    2.68685000   3.50453600   0.14974500
C    2.78533800   2.44844100  -0.64189400
H    1.68555400  -0.91581200  -1.70684900
H    2.81941900  -0.85366200   0.34861200
H    1.39511900   0.22549500   0.39555400
H    4.25003700   0.95495800  -0.42203000
H    4.50885400   1.70228900   1.85544300
H    2.82523300   1.25392200   2.22619100
H    3.05908700   3.83559200   2.08445000
H    2.49994000   2.52003600  -1.69337600