20

C    0.97948900   0.06461200   0.11567900
C    2.50661300  -0.00470400  -0.01949800
C    3.00300800  -1.38967300  -0.56840200
C    2.66437400  -1.56982800  -2.04316800
C    3.20779100  -0.42368100  -2.88622500
C    2.71299900   0.94718500  -2.32182400
N    3.01872700   0.98890700  -0.92752400
H    0.66098900   1.06205000   0.44722900
H    0.67459300  -0.66298100   0.87942100
H    0.45948800  -0.18639100  -0.81796900
H    2.96982200   0.18251900   0.95849300
H    2.53930900  -2.16167500   0.06262500
H    4.09135000  -1.45373200  -0.41392800
H    3.10501900  -2.51543400  -2.39550800
H    1.57719600  -1.66841300  -2.18751200
H    4.30890300  -0.42180600  -2.88933800
H    2.87564100  -0.47826100  -3.93237300
H    3.18391200   1.79598100  -2.83137900
H    1.61893300   1.00222300  -2.44734000
H    3.79169500   1.58247300  -0.61557900