14

C    0.84604600   0.04973700   0.07028000
C    2.33001000  -0.02854200   0.06918300
C    3.23805500   1.08036900  -0.06262400
N    2.82255800   2.33341600  -0.20123100
C    4.61825700   0.67173200  -0.02615700
C    4.73388500  -0.66730300   0.12454300
S    3.18927600  -1.48309000   0.22734700
H    0.49094200   0.68427500   0.89965100
H    0.38735400  -0.94001200   0.18549900
H    0.47925600   0.48309500  -0.87539500
H    3.48483700   3.09808000  -0.29232800
H    1.83606000   2.57239300  -0.22104600
H    5.46169800   1.35680200  -0.10950200
H    5.65365000  -1.25036400   0.18406800