12

O    0.99044100   0.10768300  -0.29723300
N    2.31119500   0.03751400  -0.07460900
C    3.17519100   1.15209200  -0.08272500
C    4.45542900   0.70311800  -0.00026500
C    4.37834100  -0.72406000   0.02756100
O    5.40767200  -1.50785900   0.10383300
C    2.98356200  -1.10092300  -0.03384000
H    0.57413100   0.47223500   0.50224200
H    2.76075200   2.15685200  -0.15044400
H    5.36635900   1.29577800   0.03248600
H    5.19415400  -2.45345100   0.10381300
H    2.49537800  -2.07473900  -0.06255800