19

N    1.15473500  -0.58550900  -0.35552100
C    2.45544300  -0.28105900  -0.12109700
C    2.82011900   1.51037100  -0.09161200
N    2.15146500   2.09960300   0.93484900
C    4.34022500   1.56693800  -0.00147000
C    4.88114500   2.92174000   0.44096700
O    4.50737300   3.10428400   1.78926800
H    0.49097900  -0.69422100   0.40224400
H    0.79275000  -0.68481000  -1.29684600
H    3.13604300  -0.56992300  -0.93186000
H    2.81180800  -0.56400800   0.87552300
H    2.39610500   1.74805800  -1.07860900
H    2.69285700   2.43235500   1.73886400
H    1.18417100   2.38682400   0.83825000
H    4.76352700   1.29813200  -0.97962400
H    4.70250300   0.82142700   0.72490000
H    4.48673600   3.72794900  -0.20510100
H    5.97812600   2.90821800   0.32785700
H    4.86259000   3.93326100   2.12551600