17

C    0.79799800   0.88332900   0.23866400
O    2.12600600   0.78407000  -0.25811900
C    2.96254800   1.82930400  -0.15229000
C    4.42637400   1.40932500  -0.05153900
C    5.29679400   2.61198500  -0.46433600
C    4.73040400   3.18249200  -1.67694400
C    4.14708400   3.59178300  -2.66888100
H    0.21507300   0.09573500  -0.24919700
H    0.38208300   1.88074900   0.03002600
H    0.82366300   0.71037800   1.32747900
H    2.62350500   2.59679400   0.56906700
H    2.96325100   2.40218100  -1.18390100
H    4.59205900   0.56685900  -0.73857400
H    4.65486400   1.06795000   0.96877900
H    6.33210100   2.28160300  -0.64328800
H    5.33180800   3.38086400   0.32353700
H    3.67584300   3.97979700  -3.55851200