13

C    0.97333600  -0.08643900   0.17615300
C    2.47992000  -0.10235100  -0.10616000
C    2.99916600   1.25573400  -0.45956800
C    2.87218600   2.31735300   0.63277600
N    3.18343400   3.56923300   0.25780200
N    3.44073700   4.56922100  -0.15943100
O    3.51581500   1.62083600  -1.48128500
H    0.64243400  -1.10220500   0.42933900
H    0.40453900   0.24546200  -0.70330500
H    0.70775000   0.55830100   1.02969800
H    2.73012000  -0.76095200  -0.94894700
H    3.03486800  -0.46374400   0.77698400
H    2.67185500   2.17514500   1.70149200