15

C    0.94686000   0.04532800  -0.01003400
C    2.38504600  -0.00049200   0.00723000
C    3.61719700  -0.05996700  -0.00318100
C    5.01695100  -0.09172600  -0.00746100
C    5.83643600   1.01380100   1.01578600
O    6.72000800   0.00895900   1.28083700
C    5.85528900  -1.04509100   0.84068900
H    0.59050000   1.03380100  -0.33725200
H    0.52543600  -0.21366700   0.97207300
H    0.58539200  -0.69774800  -0.74457600
H    5.46028500   0.12830800  -0.99305500
H    5.10795200   1.22406600   1.81684500
H    6.27030700   1.91260700   0.55789900
H    6.42976800  -1.78860200   0.26786300
H    5.32182900  -1.53221700   1.67290500