19

C    1.40570100  -0.05130400  -0.49618600
O    2.80908900   0.13213200  -0.35351600
C    3.30566900   1.34411800  -0.56277600
C    4.80572700   1.39779800  -0.68972400
C    5.33403100   2.64184100   0.00786100
O    4.58182800   2.68828600   1.27001400
C    4.48318000   3.93919300   2.00187200
H    1.20521100  -1.11039200  -0.30590300
H    1.08851100   0.20911800  -1.51742500
H    0.86216000   0.56570000   0.23548500
H    3.69381200   2.24291600   1.00280600
H    2.68096200   2.05247300  -1.13164700
H    5.13673600   1.41077200  -1.74191400
H    5.22172600   0.49174800  -0.22502000
H    5.11533000   3.57139100  -0.53945200
H    6.39705900   2.59217300   0.26992500
H    3.90194000   3.72562200   2.90459800
H    3.99776000   4.69844700   1.37480800
H    5.50473200   4.23153400   2.26656200