16

C    1.43299800  -0.86367300  -0.98529300
C    2.55773100  -0.44161000  -0.87293200
C    3.91638200   0.06567400  -0.70537900
C    4.28517300   0.09316800   0.77778200
N    5.58898600   0.61827800   1.02222700
C    6.42643900   1.71288400   0.67540400
C    6.39360100   1.13695800   2.07188300
H    0.43122700  -1.23974400  -1.10108400
H    3.99335400   1.07960200  -1.13176500
H    4.62737200  -0.57499500  -1.25174100
H    4.23492300  -0.90235700   1.25254200
H    3.58011800   0.72847300   1.35949800
H    5.90937800   2.64899600   0.42898100
H    7.29434200   1.47430700   0.04686000
H    7.23833800   0.50820300   2.38200100
H    5.85256900   1.63582400   2.88547400