15

C    2.63626500  -0.95771100  -0.59435700
N    3.33728000  -0.23844100   0.46201200
C    3.88147700   0.95482300   0.36175200
C    3.75233900   1.85610700  -0.80668100
C    2.76489700   2.69179700  -0.08463200
O    3.20856400   3.78646700   0.49507000
H    1.68152700  -0.46800800  -0.83790400
H    2.42511600  -1.97406200  -0.24539600
H    3.25805600  -1.02257700  -1.49735000
H    3.39539900  -0.69442800   1.36905100
H    4.44209600   1.31593600   1.22882400
H    3.35324300   1.38531400  -1.71316700
H    4.67358600   2.41340100  -1.02285900
H    1.70169900   2.43545600  -0.04460000
H    2.52870900   4.23039000   1.02041800