15

C    1.41013700  -0.42405600  -0.92946100
N    2.68847500  -0.19595700  -0.28796000
N    3.31727400   0.90958600  -0.43627300
C    4.57380200   1.09092400  -0.09990900
C    5.60050600   0.04628800   0.09681100
C    4.98800300   2.54763600  -0.00751800
O    6.08627600   2.83278300   0.36829900
H    1.42046500  -1.42083500  -1.39284900
H    1.25012000   0.35826100  -1.67902700
H    0.61363900  -0.39316800  -0.16889500
H    3.03946500  -0.90294100   0.37261800
H    5.19812200  -0.94265700   0.35401500
H    6.31753100   0.39233100   0.85597200
H    6.17837200  -0.05798500  -0.83993600
H    4.21350100   3.28522700  -0.30834500