15

C    0.76346500  -0.06842100   0.40285900
C    2.22381100  -0.00184300   0.47704700
C    3.04256500   0.99344800  -0.05963000
C    2.59986200   2.31584600  -0.57036900
C    4.51099600   0.76152400   0.11502600
O    5.38726400   0.79726100  -0.83924100
O    4.77658600   0.62224900   1.28571100
H    0.45431700  -1.05923700   0.02657300
H    0.28553300   0.72595200  -0.17975600
H    0.38057200  -0.04449900   1.44295700
H    2.72953400  -0.82181300   1.00102600
H    1.56704400   2.28202900  -0.94200800
H    3.26531900   2.70225800  -1.35460000
H    2.62073000   3.04810000   0.25883300
H    5.00063600   0.87681000  -1.72380800