15

C    0.94888100   0.07985300   0.06653700
C    2.44082100   0.03765700  -0.04342300
C    3.13322600  -1.19892100  -0.07769200
N    2.54436400  -2.36782300  -0.01801000
C    3.19815900   1.22751800  -0.11591900
N    4.51086600   1.17354500  -0.21241000
O    5.04843500   2.37378800  -0.26876700
H    0.57863500   1.11191500   0.07985500
H    0.60272700  -0.40697100   0.99385700
H    0.47080900  -0.43131500  -0.78604400
H    4.22407900  -1.19683700  -0.15849200
H    1.53414000  -2.46263800   0.05810000
H    3.08455800  -3.22847600  -0.04613900
H    2.69760400   2.20413700  -0.09230700
H    6.00631000   2.24068000  -0.33787500