18

C    0.90539500   0.00559300   0.19498900
C    2.41056200  -0.07828600  -0.01866300
C    2.79720100   0.01170900  -1.50749900
N    3.16749300   0.86906900   0.77997700
C    4.11411600  -0.06674000   1.31635800
C    3.22684600  -1.20655900   0.74080500
O    3.77126900  -2.24504200   0.05273500
H    0.64408900  -0.04887700   1.26092400
H    0.44152300  -0.84984900  -0.31659700
H    0.48864900   0.92747200  -0.23573000
H    3.88503700   0.06760500  -1.65603300
H    2.33562700   0.89227800  -1.97372800
H    2.41594400  -0.89546500  -1.99688700
H    2.92928500   1.81825400   1.08833600
H    5.10955000   0.04140400   0.83988400
H    4.25720400   0.02380700   2.40636400
H    2.59738200  -1.63006800   1.53763100
H    4.41897000  -1.95900100  -0.60007700