17

C    4.31184300  -1.71384900   1.50139300
C    4.91768000  -0.43948200   0.98098600
O    3.82036000   0.49465200   0.69512000
C    4.03111000   1.66356700   0.23897300
N    5.25200000   2.10737800  -0.00510400
N    5.36814100   3.31026300  -0.46828300
C    6.66783100   3.87162400  -0.76187600
H    5.12281700  -2.42239800   1.71961300
H    3.64657100  -2.17188600   0.75735700
H    3.75014300  -1.53862500   2.42862800
H    5.47152700  -0.57518100   0.04132500
H    5.57494200   0.05665900   1.70898000
H    3.11670400   2.25634800   0.07112200
H    4.53701700   3.89181700  -0.63711000
H    7.42886400   3.12119900  -0.52467100
H    6.81908800   4.77782000  -0.15616600
H    6.71526100   4.14440700  -1.82691100