20

C    2.92922200  -2.15134000   0.48527000
C    2.85555700  -0.89470300  -0.35684100
N    1.56909300  -0.45717100  -0.58130500
C    3.71935200   0.37608900   0.38974800
C    5.10744400  -0.04646000   0.60019900
C    6.01258300  -0.12927100  -0.58979900
C    5.52036400  -0.36248700   1.85937800
H    3.97356500  -2.46658900   0.60858300
H    2.37455200  -2.96160200  -0.00810900
H    2.50188200  -1.99016700   1.48705100
H    3.39922600  -0.97737000  -1.31274600
H    0.83101200  -0.63236800   0.09689100
H    1.34869800   0.18709500  -1.33613500
H    3.17229300   0.58997400   1.31650900
H    3.62337700   1.20493900  -0.32346200
H    5.70582400  -0.95840800  -1.25295800
H    7.05396600  -0.31533600  -0.29902100
H    5.97065900   0.79328500  -1.18813500
H    4.83089500  -0.35002500   2.70771800
H    6.56624500  -0.60221000   2.06873600