13

O   -0.02081700   0.02621200  -1.30387900
C    0.02207700  -1.05885300  -0.40738400
C    1.18551100  -0.66775900   0.49979700
C    1.15044500   0.70321600   0.52911800
C   -0.03244400   1.07275400  -0.36179400
C   -1.16466000   0.64318400   0.56723200
C   -1.12959500  -0.72778700   0.53791000
H    0.03921900  -2.03383900  -0.90155600
H    1.85958600  -1.34099500   1.03210100
H    1.78981800   1.38665900   1.09043700
H   -0.06568500   2.06756500  -0.81383900
H   -1.81977500   1.29306700   1.14985300
H   -1.75001100  -1.43459400   1.09151400