16

C    1.49754000  -0.27564000  -0.44245800
N    2.89655100  -0.07011700  -0.24326600
C    3.50023000   1.17256600   0.09546800
C    4.96779400   1.05595000   0.44918500
C    5.56049600   1.96392400   1.23664900
C    5.65662400  -0.05654300  -0.13506100
C    6.17130700  -1.03039700  -0.64165600
H    1.14550300  -1.04644100   0.26747800
H    1.32682700  -0.67599400  -1.45714600
H    0.94024200   0.65636200  -0.29547900
H    3.54744300  -0.85352900  -0.41245600
H    2.90371100   1.66356800   0.88563200
H    3.38175400   1.82676900  -0.80241700
H    5.00097400   2.79903600   1.66534400
H    6.62470400   1.89377400   1.46719300
H    6.67329700  -1.87507100  -1.08390100