23

C    2.00436100  -1.09007300   0.32839200
C    3.47678100  -0.86287600  -0.08568200
C    3.78112300  -1.30792800  -1.49082100
C    3.54312700   0.72024600   0.17101800
C    5.03457800   1.15155100  -0.23280700
C    4.91976400   2.66042000   0.08691500
C    6.13928700   0.46070000   0.52062800
H    1.76083700  -0.71694300   1.33043200
H    1.91984900  -2.19468800   0.35084500
H    1.29367900  -0.69652400  -0.40983800
H    4.15913900  -1.32157200   0.64330600
H    3.18441900  -0.75755900  -2.23365100
H    3.53609300  -2.37710100  -1.59242000
H    4.84856700  -1.21564700  -1.73707600
H    3.36286200   0.95168900   1.22826200
H    2.80464500   1.22946800  -0.46078300
H    5.11922000   0.99133500  -1.31659000
H    4.89446200   2.86154900   1.16572400
H    4.08207100   3.15945700  -0.41492400
H    5.85824700   3.07536400  -0.33120700
H    5.98883000   0.51403000   1.60933300
H    7.09698500   0.95456900   0.29182900
H    6.25866900  -0.58951900   0.21827300