16

C    1.00703300  -0.11410600   0.23400700
C    2.46878800  -0.10370700   0.04700600
C    3.19751100  -1.38034900   0.05068700
C    3.14776300   1.14728900  -0.14057600
C    2.45952700   2.46285900  -0.16181400
C    4.55327600   1.12202100  -0.27754200
N    5.71228600   1.11929600  -0.39294500
H    0.63942800   0.73602200   0.82599300
H    0.65300500  -1.06293400   0.65575400
H    0.54824800  -0.01337700  -0.77213300
H    2.62091900  -2.15192000  -0.48501900
H    3.22458500  -1.73034100   1.10409100
H    4.22682600  -1.32687100  -0.32216400
H    1.51447900   2.41704200  -0.72286500
H    3.10210500   3.24952300  -0.57439900
H    2.20389700   2.74895200   0.87749100