19

N    4.08539100  -0.21770500  -0.07764900
C    3.01672400  -0.01752300   0.84756200
C    2.51858300   1.41967100   0.81149400
O    3.61616000   2.26408300   1.05380400
C    3.86705700   3.34490500   0.20719400
C    5.26433500   3.18812000  -0.36946000
N    5.34643000   1.95470400  -1.20691600
H    4.32834100  -1.21274000  -0.13964000
H    4.89157800   1.08975500  -0.71524100
H    3.39757500  -0.25033100   1.86527800
H    2.19106200  -0.73495100   0.67907500
H    1.73704400   1.56893700   1.57404100
H    2.06529400   1.63249400  -0.17439000
H    3.82782200   4.29482400   0.76517500
H    3.11636700   3.41545900  -0.60286000
H    5.98560800   3.07097000   0.44984000
H    5.55799200   4.05370000  -0.97890400
H    6.31604300   1.71471200  -1.43467100
H    4.85309400   2.07323400  -2.09805200