15

C    1.33783700  -0.08468300  -1.47151900
N    2.43584600  -0.31801900  -0.54175400
C    3.43052100   0.56055900  -0.39428800
O    3.61182100   1.61138200  -0.93533700
N    4.43512500   0.11420300   0.60494000
C    5.47747000   0.87586100   0.86101400
C    6.47362900   0.53574700   1.78646800
H    1.30567400  -0.88192600  -2.22630000
H    1.50287300   0.87750300  -1.96890100
H    0.38328800  -0.05312800  -0.92912700
H    2.42079400  -1.17691600  -0.00446800
H    4.32737700  -0.77568000   1.09540300
H    5.50627100   1.81004800   0.28601800
H    6.44054600  -0.39688200   2.35746900
H    7.31152600   1.21683900   1.94830200