12

O    1.14559800   0.75645500  -0.93907600
C    1.73817900   0.43429600   0.04449600
C    3.00553400   1.22245700   0.40758000
N    3.98258100   1.35896200  -0.59090800
C    3.27342500   2.52277500  -0.35013200
C    3.98380900   3.61079400   0.53961700
O    4.33678200   3.35536400   1.63656000
H    1.42693600  -0.38267500   0.72686100
H    3.36207600   1.23152100   1.45422300
H    4.12871500   0.85217900  -1.47030400
H    2.61464000   2.90305800  -1.14451200
H    4.10614100   4.59817700   0.04288500