12

C    0.97767500  -0.00968500  -0.00094400
C    2.40990000  -0.02352900  -0.00075400
C    3.65124000  -0.02152300  -0.00008600
C    4.98507600  -0.02152300   0.00008600
C    6.22641700  -0.02352900   0.00075400
C    7.65864200  -0.00968500   0.00094400
H    0.64946500   1.04731700   0.01199200
H    0.57735000  -0.49731800   0.90140200
H    0.57665700  -0.47701500  -0.91350400
H    7.98685200   1.04731700  -0.01199200
H    8.05896700  -0.49731800  -0.90140200
H    8.05966000  -0.47701500   0.91350400