17

C    3.09336100  -1.22557400  -0.28315600
C    2.51809900   0.11603600   0.13955200
O    2.15977100   0.17859600   1.49048100
C    3.55820400   1.23199100  -0.01153100
C    3.64468100   1.97818300  -1.27552700
C    3.06086800   2.55438800   0.43051500
O    3.87184300   3.36774500   1.02433200
H    3.40517100  -1.21269800  -1.33769300
H    2.33049000  -2.01053200  -0.17471900
H    3.95669400  -1.49253600   0.34339500
H    1.65442800   0.36407700  -0.51292300
H    1.62553000  -0.58645400   1.72950700
H    4.53073600   1.01317800   0.45133800
H    2.80325200   2.00450600  -1.97541800
H    4.56978700   2.48931300  -1.55591500
H    1.99671500   2.81043200   0.34887200
H    3.46330100   4.21346200   1.27296000