13

C    1.02740800   0.13043300  -0.64263400
O    2.44468500   0.23376800  -0.41464100
C    3.03678300   1.35942900  -0.23110000
N    2.41364200   2.51883600  -0.23316900
C    4.46771000   1.26460700  -0.01692100
C    5.23150100   2.40909000   0.19253900
N    5.82002000   3.40313800   0.36294600
H    0.82877200  -0.93823700  -0.76116400
H    0.75905400   0.66458000  -1.56593500
H    0.48103600   0.51753100   0.22994400
H    1.41178100   2.60152800  -0.38242700
H    2.93202700   3.38321600  -0.08245300
H    4.92256900   0.27060400  -0.02568500