13

C    0.93243600   0.00953200   0.05842700
C    2.43985900   0.04018800   0.10618200
C    3.02072100  -0.82829900  -1.31771600
C    4.42564100  -0.98545800  -1.26578500
N    5.58767400  -1.10458500  -1.19466100
C    3.05503700   1.32430600   0.03505300
N    3.56237100   2.37369300  -0.05265300
H    0.57880500   0.49520000   0.98794000
H    0.55577300  -1.02081300   0.05288800
H    0.52096900   0.57599700  -0.78811700
H    2.89587500  -0.57720100   0.89910400
H    2.67489500  -0.20934500  -2.15817800
H    2.47967100  -1.77925400  -1.20497100