17

C    2.09083900  -1.14877900  -0.74591400
N    3.42610300  -0.62666100  -0.55121200
N    3.61011900   0.58803900  -0.16535100
C    4.79563800   1.02268900   0.21774600
C    5.96238500   0.18426900   0.56903700
C    4.90665700   2.50785500   0.34168200
O    6.21158300   2.84834800   0.63828500
H    2.01815200  -2.13490900  -0.26599300
H    1.89369600  -1.26156100  -1.82355900
H    1.37591800  -0.44674900  -0.30397200
H    4.22480200  -1.21605000  -0.81537800
H    5.76652400  -0.89434500   0.58513100
H    6.34005400   0.50486800   1.55290800
H    6.78353400   0.42342600  -0.12903000
H    4.17703200   2.79822600   1.12980500
H    4.52323900   2.95881400  -0.59768200
H    6.29495800   3.80077600   0.74627500