15

C    1.00252500   0.01038400   0.14033400
C    2.31297600  -0.00800300  -0.01497200
C    3.20606000  -1.26758600  -0.08979700
O    4.07972000  -1.13185900  -1.16552100
C    4.98387600  -0.06276400  -1.05564100
O    4.10242200   1.01873000  -1.21763500
C    3.23412500   1.22601400  -0.14891600
H    0.44589900   0.95099100   0.18870700
H    0.42547400  -0.91405400   0.23703600
H    2.57920700  -2.14727200  -0.28829900
H    3.77170300  -1.36202700   0.85605600
H    5.49577100  -0.04441100  -0.07779300
H    5.67104300  -0.09068100  -1.90579800
H    3.80314200   1.35320100   0.79095600
H    2.62676900   2.10898500  -0.38931400