15

C    2.69450300  -0.66782700  -1.62935700
N    2.56864100   0.17520900  -0.47525200
C    3.26308200   1.38508300  -0.27120700
C    3.71293800   1.59593800   1.20419600
O    3.44312400   2.97587200   1.44014500
N    2.51076100   3.40812600   0.60265700
C    2.30701700   2.59370300  -0.35591600
H    1.89900700  -0.42400000  -2.36037500
H    2.56025500  -1.71860300  -1.33389600
H    3.67163900  -0.51700700  -2.10471800
H    1.81967500  -0.04444800   0.18802500
H    4.08222700   1.46603000  -1.00250000
H    4.77695300   1.40938000   1.38773000
H    3.09620100   0.98623400   1.88566200
H    1.57466100   2.78238500  -1.14199100