14

C    2.00573000  -0.32239700  -0.64514000
O    2.17630700   0.68663900   0.37834400
N    2.76899600   1.80557000  -0.04547700
C    2.10378200   2.96231700  -0.02513000
C    0.76092700   3.05685800   0.30795000
C    4.22186200   1.75582600  -0.29420800
O    4.78866500   2.71785800  -0.67314700
H    2.97287700  -0.62812400  -1.06901700
H    1.33459800   0.05585900  -1.42940300
H    1.54778800  -1.16506000  -0.11758100
H    2.71975300   3.82945900  -0.28441200
H    0.18201200   2.17535400   0.59188800
H    0.27717500   4.03543500   0.29698000
H    4.63562600   0.75748700  -0.05434500