17

C    2.28275500  -0.70013900   0.64418500
N    2.65781600   0.00655200  -0.54265200
C    2.94667100   1.38547700  -0.59734700
C    4.43811400   1.66259700  -0.09311000
C    4.73228600   3.11459300  -0.19107300
N    5.40289100   3.51591900  -1.20330400
O    5.62856900   4.83384700  -1.19724100
H    3.14316400  -1.29230600   1.01121700
H    1.47783200  -1.41479800   0.40791300
H    1.95674900   0.00169100   1.42066400
H    2.87991200  -0.55683900  -1.36771600
H    2.25497100   1.93637700   0.05747300
H    2.87079700   1.74059200  -1.63337500
H    5.13084600   1.09792400  -0.73164200
H    4.51160700   1.30513900   0.94435700
H    4.36698800   3.81916200   0.56997600
H    6.15727900   5.00561400  -1.98727400