18

C    1.38367100   0.07615000  -0.54737900
N    2.60443800  -0.04438600   0.17443900
C    3.57700900   1.00187500   0.35920400
C    4.89383300   0.52347700  -0.24327400
C    5.36593300   1.07494700  -1.36193900
C    5.59156100  -0.57589800   0.51501700
O    4.62260300  -1.56008400   0.84853200
H    0.66143800  -0.67165600  -0.19323700
H    1.58742200  -0.13593900  -1.61740600
H    0.98338500   1.09568100  -0.46757900
H    2.97503100  -0.96997700   0.47715100
H    3.69246100   1.15395200   1.45034600
H    3.21515700   1.93552700  -0.09040000
H    4.84861500   1.89361200  -1.86887000
H    6.31288400   0.74405600  -1.79660600
H    6.04023500  -0.15531900   1.43442200
H    6.40143600  -0.99888200  -0.09996900
H    5.01448100  -2.25808700   1.38383800