20

C    0.92790200  -0.00368800  -0.68320200
C    2.25931100  -0.22295900   0.04618300
C    2.84897900  -1.60357800  -0.17845500
N    3.17607100   0.85975900  -0.32380200
C    4.37822000   0.75949000  -0.96585500
C    4.79855300   1.88390400  -1.97065000
C    5.48213700   1.82612800  -0.68200800
H    0.50924600   0.99382500  -0.48464200
H    0.20121500  -0.74592900  -0.32669000
H    1.05135400  -0.13074800  -1.76843300
H    2.08515900  -0.07548300   1.12814300
H    3.00462300  -1.81532400  -1.24723700
H    2.13679400  -2.34867100   0.19984400
H    3.79269300  -1.74773600   0.36696300
H    2.83944900   1.80046100  -0.10988800
H    4.70499500  -0.25640600  -1.18552300
H    4.05317400   2.66325200  -2.14873800
H    5.28681300   1.48899000  -2.86526300
H    6.48309800   1.39214400  -0.61624300
H    5.24013900   2.56511800   0.08620200