15

C    0.91801000  -0.04913000   0.03200000
C    2.39864400   0.00337200   0.03264700
C    3.26860500   1.15624400  -0.06868400
N    2.84030900   2.41122400  -0.18412400
C    4.61771900   0.68539300  -0.02096900
C    4.54429300  -0.67022000   0.10170300
N    3.21040100  -1.05826600   0.13193900
H    0.50719400   0.53338300   0.87227300
H    0.55313300  -1.07975400   0.12377400
H    0.51363100   0.37311400  -0.90198500
H    3.49739600   3.18130100  -0.25155700
H    1.85326000   2.64137900  -0.20865000
H    5.52231900   1.28531900  -0.07204200
H    5.33849000  -1.41044900   0.17179300
H    2.89083900  -2.01772000   0.21783200