18

C    1.09067300  -0.48436100   0.28012600
N    2.36891100  -0.04446200   0.72508500
C    2.89528900   1.26048600   1.06349600
C    4.30684700   0.64503700   1.13257700
C    3.65251400  -0.73985600   0.87363400
C    4.04684700  -1.56535200  -0.31455900
C    4.26485300  -2.87874800  -0.24950400
H    1.10086500  -1.57261600   0.14325800
H    0.84286400   0.01128000  -0.67594000
H    0.32435200  -0.18383000   1.01490800
H    2.46302300   1.63588500   2.00889200
H    2.69097600   2.00976500   0.27870300
H    4.96822200   0.96797700   0.31941900
H    4.82649200   0.74516700   2.09159400
H    3.59815600  -1.37520400   1.77909100
H    4.17381500  -1.02165500  -1.25718000
H    4.15879400  -3.44050800   0.68354300
H    4.57747400  -3.43965000  -1.13305700