15

O    0.84593900   0.97101100  -0.43594800
C    1.57429000   0.04159700   0.12040300
C    1.83726300  -1.19327800  -0.64035400
C    3.13418400  -0.54090800  -0.91655000
O    4.16838400  -0.89098300  -0.21576400
C    5.39375300  -0.24517100  -0.36221100
C    6.40826300  -0.61281500   0.40567300
H    0.79030600   1.77895300   0.09618800
H    1.91927700   0.15461800   1.15491100
H    1.19125700  -1.30938600  -1.51877300
H    1.92778800  -2.09882200  -0.02900100
H    3.25041900   0.18406000  -1.73238700
H    5.41574300   0.52821500  -1.13482700
H    6.30518200  -1.40550100   1.14940900
H    7.37273200  -0.11759800   0.29002200