18

C    3.15543300  -1.00658400  -0.83810700
C    2.54724500   0.04187400   0.07790200
N    2.92760800   1.40050300  -0.23666500
C    3.21555400   1.89611100  -1.56130000
C    3.41529400   3.36517600  -1.35333200
C    3.26977800   3.68208300  -0.06642500
C    2.95494300   2.46231800   0.74171000
H    2.82619600  -1.99741900  -0.49914700
H    4.25377600  -0.98495300  -0.79809200
H    2.82692700  -0.89007500  -1.88007300
H    2.80503500  -0.13127100   1.13391300
H    1.43948300   0.01271200   0.02250400
H    2.37999800   1.63560400  -2.24262200
H    4.10294900   1.37054800  -1.96835900
H    3.65372300   4.04549700  -2.17019300
H    3.36556600   4.67269100   0.37677000
H    3.71033100   2.22282200   1.51780000
H    1.98236000   2.49744300   1.27338700