18

C    1.24973000  -0.41744700   0.58561700
C    2.18783600   0.11614800  -0.50262300
C    2.71086200   1.44892300  -0.21802200
C    3.13861500   2.55323100   0.03728600
C    3.68436100   3.85194300   0.35876900
N    3.05281400   4.94482400  -0.32161700
C    3.43037700   6.31397000  -0.16826800
H    0.89961100  -1.42083800   0.30974200
H    0.37065900   0.23066600   0.70649900
H    1.76495200  -0.48881600   1.55336400
H    1.67278500   0.15367800  -1.47624300
H    3.04866600  -0.55869500  -0.63784700
H    4.77331500   3.91717100   0.13537600
H    3.62786800   4.07318200   1.44875500
H    2.28183500   4.71530400  -0.95882100
H    4.25801000   6.40926100   0.54405400
H    2.55635900   6.89603100   0.17500700
H    3.72065700   6.72324700  -1.15280000