15

C    1.48840100   1.09462400   0.53497000
N    2.50241400   1.04470900  -0.21794100
N    3.49790300   1.87457100  -0.36572700
C    4.87805800   1.47272800  -0.11556300
C    5.72180600   2.72641100  -0.29364800
C    6.51313500   2.93403500  -1.51078800
O    5.23903700   3.53164100  -1.34906600
H    0.73940100   0.30203200   0.43400700
H    1.35480000   1.89609000   1.27668600
H    3.40063400   2.62213200  -1.07496200
H    5.14182700   0.68977700  -0.84769700
H    4.95358000   1.04189400   0.89303800
H    5.98262100   3.26554400   0.62437600
H    6.57307100   2.13587300  -2.25939400
H    7.35834700   3.62842700  -1.48482000