13

C    1.88983600  -0.67047600   1.45471600
C    2.15324200  -0.51379600   0.15819100
S    3.21604400   0.76692800  -0.38616800
O    2.82238000   1.30189500  -1.65797100
O    3.52595300   1.69037000   0.78911700
C    4.92049000   0.28809800  -0.28578000
C    5.79947400   0.96230900  -1.07140900
H    1.19418400  -1.45384400   1.76883000
H    2.33224100  -0.03855100   2.23039700
H    1.72366900  -1.07994500  -0.67348200
H    5.17382800  -0.46178600   0.46993800
H    5.47699000   1.76824800  -1.74045700
H    6.85742000   0.67890000  -1.07136300