14

O    1.08541700   0.04203700  -0.44025400
C    2.38157500   0.01206100   0.03713000
C    2.93750200   1.35451100   0.08276400
C    3.40230800   2.48799000   0.14227200
C    3.97276000   3.76278100   0.16814600
C    3.57042300   4.68936400  -1.15923000
N    3.17426000   4.96221900   0.14536200
H    0.70887200  -0.84374000  -0.40255900
H    3.07921500  -0.59484600  -0.58139300
H    2.47779300  -0.38895300   1.07077000
H    4.99885000   3.84625300   0.54578800
H    2.87781000   4.12868700  -1.79396400
H    4.34450200   5.29088500  -1.64931200
H    3.65785700   5.75614800   0.57239100