14

C    0.91307200  -0.03488300   0.04585500
C    2.41033000   0.09877100   0.17654200
C    3.12627900  -0.79027000  -1.28240100
O    4.42521700  -0.93558900  -1.14745400
C    2.97038100   1.38738200   0.10817200
C    3.45432600   2.50769100   0.02064800
H    0.46142100   0.39867700   0.95388600
H    0.60593200  -1.08737900  -0.00780100
H    0.51928100   0.51798000  -0.81782300
H    2.88446700  -0.53853800   0.93891300
H    2.75846100  -0.16669700  -2.10925600
H    2.59089000  -1.73294400  -1.11430200
H    4.93650300  -0.21846100  -1.55315100
H    3.87177700   3.50243000  -0.03286700