20

C    2.32219300  -1.25118100  -0.81696800
C    1.91519100   0.03314600  -0.07571900
C    3.09795800   0.88561100   0.27838200
C    3.86915900   0.54339800   1.51649600
N    3.69602400   1.62496400  -0.75851600
C    3.04624900   2.61323900  -0.00829600
C    3.70425900   3.47243800   1.01347800
H    1.42388800  -1.83699300  -1.04972200
H    2.98392100  -1.87885600  -0.20416200
H    2.83423800  -1.03351200  -1.76601500
H    1.38825000  -0.22596400   0.85507800
H    1.21532300   0.61546500  -0.69654100
H    4.85005300   1.02483600   1.56320700
H    4.02367300  -0.54800800   1.49732600
H    3.28676500   0.77114700   2.42056300
H    3.29791500   1.45843400  -1.68680300
H    2.12636000   3.01289400  -0.45523800
H    4.69597000   3.12019500   1.31089200
H    3.05972900   3.59730400   1.89554300
H    3.81138900   4.47006400   0.55352300