21

C    1.08250200   0.93167400   1.12053500
C    2.16401700   1.28559700   0.10525300
C    3.21355500   2.22247900   0.70533100
C    4.30712500   2.58571300  -0.36223200
C    5.28138200   3.46357200   0.28519800
C    6.27873300   4.49883400  -0.82889200
C    5.28594600   4.94738900   0.15535500
H    0.34070600   0.25864600   0.66834000
H    0.54962600   1.82819700   1.47137000
H    1.50590600   0.42108300   1.99837400
H    1.70963700   1.76440600  -0.77744700
H    2.65953600   0.36921200  -0.25442100
H    3.69571500   1.74733700   1.57434900
H    2.73923700   3.15085800   1.06176600
H    3.82380500   3.06581900  -1.22583700
H    4.77899400   1.64133800  -0.67989500
H    5.95432500   3.02219700   1.03008700
H    5.99775600   4.33431200  -1.87286000
H    7.33527300   4.39380400  -0.56567700
H    5.69229700   5.47528900   1.02604200
H    4.36409900   5.36140200  -0.27008100