16

O    2.48250000  -0.98854600   0.95934000
C    2.14834200  -0.05555800  -0.08582400
C    2.94432700   1.22050000   0.13061900
C    4.45003300   1.12857600  -0.01364900
C    5.20470000   0.23123900   1.15016300
O    4.90625800  -1.04355800   0.90113400
H    1.88701200  -1.75001400   0.96663900
H    1.07433400   0.16640600  -0.02707300
H    2.36295600  -0.50495100  -1.06951100
H    2.67575900   1.66017600   1.10419700
H    2.61136500   1.94550900  -0.63254400
H    4.93724200   2.10207700   0.14851200
H    4.78090400   0.70569500  -0.97247200
H    4.72501600   0.61993000   2.07159500
H    6.28428000   0.41391900   1.08614600
H    3.84719200  -1.19053100   1.02336800