17

C    2.18635200   0.72193700   2.05150000
C    3.07432300   0.29015400   0.88524600
N    3.57572600   1.43862200   0.12877000
O    2.75366200   2.03538300  -0.70579300
C    4.82604300   2.07825800   0.29832600
C    5.76155000   1.46257900   1.29210700
N    5.12865900   3.12226800  -0.37363200
H    1.83532000  -0.18174600   2.56739200
H    1.30592500   1.28430000   1.71066100
H    2.74426500   1.33609200   2.77099200
H    2.53465800  -0.34722800   0.16509100
H    3.94958000  -0.27443800   1.22451300
H    1.94535500   1.50230900  -0.80681000
H    5.31232700   1.38463600   2.29241500
H    6.63927200   2.11542900   1.35135400
H    6.09474400   0.46499200   0.96841300
H    4.40768300   3.43336600  -1.03129000