10

O    1.01533400  -0.06518700   0.17967100
C    2.28335000  -0.00440200   0.06212500
C    2.92637300   1.27007100  -0.01691400
C    4.27724500   1.22141900  -0.14038100
O    4.92720700   0.05761200  -0.18196000
C    4.25328400  -1.07956200  -0.10219800
N    2.97240800  -1.16241300   0.01687800
H    2.37690600   2.21113300   0.01891100
H    4.93931200   2.08661500  -0.21479600
H    4.89268800  -1.96667800  -0.14712500