17

C    0.97670600   0.09242400   0.00007600
C    2.41371100  -0.00683600  -0.01844700
C    3.64196300  -0.13214200  -0.03563700
C    5.04418300  -0.21981500  -0.06883400
C    5.68466400  -0.74180700  -1.34288600
C    5.61664500   1.41877400   0.18378000
O    6.95195800   1.39297100   0.20753400
H    0.60934200   0.68223600  -0.85289400
H    0.61591200   0.51658000   0.94823700
H    0.55967100  -0.92674300  -0.09599700
H    5.43320400  -0.68377900   0.85331900
H    5.29821700  -0.22428600  -2.23190800
H    5.45614500  -1.81347500  -1.44211400
H    6.77348100  -0.61720800  -1.29616500
H    5.12582900   1.74789400   1.11043000
H    5.25831200   1.93491000  -0.71557200
H    7.30357800   1.26035900   1.09893900