16

C    0.82653000   0.41969100  -0.46129800
C    2.19397100   0.09503000   0.09711100
C    2.32679600   0.29096000   1.65183600
N    2.18886800  -0.99054300   2.21420800
C    3.01451800  -1.04236700  -0.52733600
N    3.35165500   0.32775400  -0.66514900
H    0.77984800   0.19821800  -1.53489000
H    0.61105500   1.48717300  -0.30612300
H    0.05817800  -0.17360400   0.05348700
H    1.53471400   0.98167000   1.97773400
H    3.29753200   0.72624300   1.92003800
H    1.28261200  -1.44550200   2.26284800
H    2.97352300  -1.49300500   2.61465400
H    2.57866700  -1.53276800  -1.40471000
H    3.65844100  -1.67604100   0.09503600
H    4.21435900   0.74576000  -0.31538800