14

C    1.06007600  -0.05019700   0.11650200
C    2.51947100   0.04792800  -0.02314300
N    3.28566500  -1.03571200  -0.12506400
N    4.52035600  -0.65028200  -0.23319400
C    4.75360400   0.78952700  -0.21747100
C    3.32391100   1.30988200  -0.06765100
H    0.72890800  -1.09459500   0.10579200
H    0.56857700   0.51018500  -0.69629200
H    0.74413700   0.43355800   1.05632100
H    5.24364900  -1.36806900  -0.32151800
H    5.25462900   1.08847700  -1.15192500
H    5.42315900   1.04165200   0.62025100
H    2.99753300   1.94667600  -0.90644900
H    3.16499800   1.90228900   0.84853200