17

C    3.49877600   2.72723900  -4.10077100
O    2.81582100   3.50660300  -3.09744700
C    3.34830300   3.73974000  -1.95495400
N    4.54251500   3.27225700  -1.65999200
N    5.07892000   3.51100600  -0.50005000
C    4.44748700   4.28885400   0.55931600
C    6.40073900   2.95149500  -0.27062100
H    2.81483300   2.69564700  -4.95284200
H    3.69358400   1.71998300  -3.71200300
H    4.44165200   3.22034900  -4.36815900
H    2.71075200   4.34522800  -1.29755300
H    3.50284700   3.81479500   0.86700200
H    4.25381700   5.31554600   0.21267100
H    5.12500300   4.32435200   1.41836300
H    6.70920400   2.40666500  -1.16764900
H    6.36193100   2.27526100   0.59695700
H    7.10652500   3.76769800  -0.05346000