14

N    2.23910000  -0.23690300  -1.62484400
C    3.13144000  -0.66705800  -0.58143600
C    2.95342700   0.55402500   0.26358400
C    3.76821500   1.65175100   0.13069000
O    3.54985000   2.72046600   0.86671000
C    4.43428900   3.81491800   0.73646100
O    5.33634600   3.81082100  -0.01963900
H    1.23054800  -0.33335700  -1.52501500
H    2.56920500   0.34271700  -2.39335500
H    4.14886600  -0.81069700  -0.96539300
H    2.78300500  -1.58980600  -0.10394100
H    2.09702000   0.60770600   0.94263600
H    4.63062400   1.68915500  -0.54880400
H    4.11118800   4.60090600   1.43809900