16

C    2.25246700  -0.88673100  -0.16414300
O    3.47357500  -0.10217400  -0.17730400
C    3.37261700   1.35243100   0.00679800
C    4.78939700   1.87741100   0.13742200
C    5.54327500   1.22875300   1.29971700
O    5.38270000  -0.12149600   1.38581000
H    2.54654600  -1.92261000  -0.36087400
H    1.61932700  -0.50993800  -0.97466100
H    1.75661700  -0.78712000   0.81049900
H    2.76126200   1.53246000   0.90586800
H    2.85476200   1.74438800  -0.87728100
H    4.74631900   2.96764100   0.27484000
H    5.33361300   1.69860600  -0.80295900
H    5.19809000   1.60661400   2.29804400
H    6.62547800   1.47692100   1.32651600
H    4.22960300  -0.40902900   0.46514800