13

N    1.23628000   0.04816200   0.70220700
C    2.39027000   0.04699900   0.07253900
N    2.98664600   1.22241200  -0.10836500
C    2.65721900   2.60792000   0.24159500
C    3.97227400   3.08478000  -0.41745200
C    4.27768200   1.64335400  -0.76097000
O    5.06752300   0.94938800  -1.27719700
H    0.85157200  -0.90056100   0.79561400
H    2.92747400  -0.82653600  -0.32786000
H    2.56953000   2.73672300   1.33138200
H    1.71652700   2.92872300  -0.23179700
H    3.86375600   3.72437400  -1.30521900
H    4.71622000   3.53265300   0.25704100