18

C    1.63023000  -0.44670100   0.20725900
N    2.19008800   0.42974700  -0.77835400
C    2.67914800   1.75935400  -0.52463200
C    4.14071100   1.52783700  -0.18628400
C    5.13387000   1.74419700  -1.06535800
C    6.60276800   1.63745600  -0.75788100
O    7.30501000   1.08609600  -1.82722300
H    2.32052600  -1.28327400   0.41474200
H    0.70163700  -0.88663600  -0.19570600
H    1.41521500   0.10476300   1.12961900
H    2.41521800   0.02601300  -1.69148300
H    2.11878300   2.20972900   0.30519600
H    2.56301000   2.37116700  -1.42951800
H    4.34642700   1.15184000   0.82189600
H    4.91018100   2.07211600  -2.08902500
H    6.76347000   1.10540300   0.19776800
H    6.98162000   2.66374400  -0.61323700
H    7.22754100   0.12777300  -1.80806700