17

C    0.39835000   0.82266900  -0.24588600
N   -0.37801100  -0.17120700   0.46966600
C    0.90642800  -0.55958500  -0.01523000
C    1.98217500  -0.82347100   1.07210200
C    1.75761400  -0.08086500   2.41263200
C    1.09345700  -1.38089100   2.90268700
N    1.64249800  -2.04023100   1.75362900
H    0.10877200   1.08774900  -1.26677800
H    0.78680100   1.65158000   0.35269900
H   -1.17029900  -0.55761500  -0.04047800
H    0.98527600  -1.24526300  -0.86647000
H    2.97813100  -0.82144300   0.60112800
H    1.11541000   0.80518900   2.39249900
H    2.70253100   0.13594200   2.92528400
H    1.35642900  -1.83748900   3.87044400
H   -0.01606400  -1.33609300   2.80846800
H    1.69559400  -3.02537300   1.48128700