18

C    1.12041700  -0.44277400   0.40329600
C    2.60592500  -0.19342700   0.51020400
C    3.06847000   1.30898900   0.08910400
N    2.51146700   2.20047500   0.99672400
C    4.61344000   1.38028500   0.05775100
C    5.17096000   0.47472200  -0.93447100
C    5.62399800  -0.27710700  -1.76506400
H    0.93962100  -1.51793300   0.55550500
H    0.72956900  -0.18781400  -0.59260800
H    0.53777000   0.09033800   1.16780900
H    3.18827200  -0.78491600  -0.21711700
H    3.00262800  -0.38487200   1.51817200
H    2.62097400   1.46944700  -0.90496300
H    2.96858500   2.40177500   1.88911400
H    1.57883600   2.59383800   0.86193000
H    5.01984400   1.15131100   1.05780000
H    4.90001500   2.41541200  -0.18890900
H    6.04617700  -0.93698300  -2.50392800