15

C    1.90254100   0.93936000   0.86866400
O    3.01434600   1.66975000   0.32160300
N    4.01809700   1.77476700   1.14390100
C    5.00854300   2.46904400   0.55617900
N    6.09617700   2.67580200   1.22699300
C    6.80899400   2.47955100   2.45063700
C    7.40900200   3.23789800   1.29550300
H    1.15151900   0.92279400   0.07363100
H    1.53093500   1.46697700   1.75662200
H    2.23314300  -0.07505200   1.12642700
H    4.91705700   2.85947300  -0.46632000
H    7.14186800   1.45521700   2.64656800
H    6.43057700   3.03579800   3.31426200
H    7.45707000   4.33070000   1.34405700
H    8.16872300   2.74998000   0.67611800