16

O    1.14025500   0.20941500   0.38417600
C    2.27180600   0.01971000   0.13074400
C    3.00638800  -1.29178700  -0.07185800
C    4.03574500  -1.24135600  -1.19439900
C    4.96376700  -0.01148400  -1.08294700
N    4.13924900   1.16967400  -1.02067100
C    3.26589000   1.32945300   0.04378100
H    2.24254500  -2.06320000  -0.24112300
H    3.48970500  -1.50642100   0.89848000
H    4.66586700  -2.14147000  -1.15635600
H    3.53456100  -1.23901200  -2.17426800
H    5.56655500  -0.06920800  -0.16196200
H    5.64123400   0.05685800  -1.94222200
H    3.93890000   1.66973600  -1.88732700
H    3.77747100   1.26576100   1.02128400
H    2.64048000   2.22562100  -0.02830700