15

C    1.61490800  -0.16908900  -0.05453700
O    0.72803200  -1.13261300   0.44256400
C   -0.33476500  -1.47177100  -0.37642800
C   -1.47584700  -0.54425600  -0.27069500
C   -1.34973500   0.75422800   0.25669300
C   -0.05814000   1.46189200   0.32357500
O    0.90099600   0.94001000  -0.52652200
H    2.19508300  -0.53513700  -0.91530100
H    2.27810000   0.08427200   0.78657900
H   -0.68090400  -2.48640800  -0.09758400
H   -0.07789500  -1.56559300  -1.46107200
H   -2.46699900  -0.89576100  -0.58427400
H   -2.25120600   1.27712600   0.60052500
H    0.24489300   1.50660300   1.39940700
H   -0.22571000   2.52263600   0.05169900