19

N    1.03395900   0.20363800   0.11981400
C    2.50764900  -0.03306600   0.16162700
C    3.19764400   1.32984700   0.39541200
C    2.47290700   2.10188400   1.46910100
N    2.58438800   1.67887600   2.77225900
C    4.68789300   1.08577200   0.67115000
O    4.78437800   0.20944400   1.77016800
H    0.47212200  -0.60376000   0.40622900
H    0.70705000   0.51324500  -0.80165900
H    2.82320600  -0.52403700  -0.76777600
H    2.71077800  -0.70519400   1.00468300
H    3.13723400   1.91974500  -0.53373300
H    0.89763700   1.00858400   0.79312500
H    2.19191900   3.14392500   1.29407900
H    3.32130900   1.00987100   2.98926400
H    2.33344400   2.31985900   3.51469900
H    5.17269800   2.05678700   0.87194600
H    5.16307000   0.65198700  -0.22864700
H    5.70822400   0.04196600   1.98109100