20

C    2.59515500  -1.76870100   0.06588600
N    3.31643400  -0.69247400  -0.54241800
C    3.34840700   0.64835400  -0.09860300
C    4.70968500   1.33599900  -0.27634800
C    4.50222800   2.84090000  -0.19727600
O    3.49790700   3.15795100  -1.11140300
C    3.10560900   4.51212200  -1.12100800
H    3.31175300  -2.54118000   0.40061400
H    1.93827500  -2.24204700  -0.68341600
H    2.01060200  -1.40641900   0.91858200
H    3.83265500  -0.90466500  -1.40195100
H    2.95015100   0.70854700   0.92472300
H    2.65984800   1.24765100  -0.75505600
H    5.11826100   1.08743100  -1.26939400
H    5.42352000   0.99264600   0.48620300
H    5.45236900   3.35288400  -0.43894700
H    4.21819600   3.14469200   0.83073800
H    2.30393400   4.61727400  -1.86129400
H    3.94635300   5.16578900  -1.40947000
H    2.73069300   4.82877700  -0.13163000