11

N    0.98016400   0.03348300  -0.00352600
C    2.30150100  -0.03133100   0.00073300
C    3.19141800   1.09154700   0.00323800
O    4.43073600   0.66159600   0.00726200
C    4.41318600  -0.70754300   0.00753400
C    3.14866200  -1.18968400   0.00371200
H    0.48604200   0.92162200  -0.00521300
H    0.41488100  -0.81152400  -0.00513700
H    3.01199000   2.16645300   0.00249700
H    5.38815900  -1.19053400   0.01071700
H    2.84614100  -2.23392300   0.00311300