11

O    1.01987000  -0.09444500  -0.00589800
C    2.30421700   0.02999400  -0.00000300
C    3.16198100   1.17915100   0.00395000
C    4.45098300   0.69934100   0.00985600
C    4.38405100  -0.72093600   0.00952600
N    3.07680300  -1.09114500   0.00352300
H    0.54811900   0.75299900  -0.00804700
H    2.82879900   2.21562300   0.00243900
H    5.37047300   1.28128200   0.01408300
H    5.18642800  -1.45748600   0.01319500
H    2.71463300  -2.04209900   0.00184600