12

C    0.98088800  -0.01227600   0.00308900
C    2.45808100  -0.02317100   0.00353200
N    3.10764300   1.20082000   0.00296000
S    4.70666700   1.06660300   0.00435900
C    4.63789600  -0.71991100   0.00624700
O    5.73885400  -1.38022300   0.00798800
C    3.29879700  -1.12940600   0.00542300
H    0.56273500  -1.02468600  -0.00425900
H    0.62013500   0.54895100  -0.87411800
H    0.62033600   0.53479500   0.88949500
H    5.62726700  -2.34725600   0.00903200
H    2.96803900  -2.16817800   0.00605300