12

C    0.92127400   0.10808700  -0.00370700
C    2.38777000  -0.03060300  -0.00510500
N    3.23693300   0.98942500  -0.00940800
C    4.49545100   0.60108900  -0.01138100
C    4.67803100  -0.83133700  -0.00839000
O    5.77670200  -1.50153500  -0.00922700
S    3.15487900  -1.62894600  -0.00293400
H    0.66060500   1.17284500   0.00745800
H    0.48376000  -0.39332500   0.87570300
H    0.48632900  -0.37204400  -0.89651500
H    5.32207800   1.31851100  -0.01498700
H    6.57923400  -0.95228600  -0.01229700