12

C    1.04442900   0.07834600   0.03993400
C    2.50335300  -0.00609500  -0.11039000
C    3.37125000  -1.10342800  -0.16309400
O    4.60357400  -0.68784000  -0.30687400
C    4.59274500   0.73082400  -0.35520400
O    3.22713600   1.08605600  -0.22445900
H    0.59866400  -0.91925100   0.12167200
H    0.61531900   0.60767600  -0.82581000
H    0.80054400   0.66940200   0.93715200
H    3.17435000  -2.17403100  -0.10515600
H    4.98144400   1.07446000  -1.32581500
H    5.17152900   1.13771300   0.48782700