11

C    0.91507700  -0.00603500  -0.12753000
N    2.31237800   0.23852900  -0.26167200
C    2.95419700   1.45565700   0.15920000
C    4.38961500   1.44105400  -0.09420200
N    5.52307500   1.40567900  -0.30472900
H    0.76910900  -0.92434000   0.47372800
H    0.49284900  -0.22443800  -1.12757600
H    0.40694700   0.84842900   0.33368100
H    2.89857800  -0.49454000  -0.68304200
H    2.74131300   1.60789700   1.23775200
H    2.46619100   2.30581500  -0.36130000