12

C    0.94073400   0.02276900  -0.00805500
C    2.41744400   0.08271200  -0.00070700
C    3.21662900   1.19458900   0.00458400
S    4.88092600   0.81341100   0.01196000
N    4.60260300  -0.79986200   0.00857900
C    3.23461000  -1.16419700   0.00134100
O    2.85512700  -2.30147400  -0.00156500
H    0.48687100   1.01985200  -0.00574800
H    0.58968500  -0.54707400   0.86790200
H    0.59838700  -0.53859400  -0.89295700
H    2.91657100   2.24449300   0.00470300
H    5.35752200  -1.48896600   0.01157300