13

O    1.02333900  -0.29248300   0.37370900
C    2.28465700   0.03083100  -0.07599600
C    2.84692000   1.26804800   0.64246100
N    3.87509900   0.99216200   1.35548200
N    4.22235500  -0.28291800   1.20703500
C    3.50228800  -1.34207100   1.83845700
C    3.35127400  -1.00803200   0.33274200
H    0.43070600  -0.51896400  -0.35210100
H    2.33191400   0.21804400  -1.16454700
H    2.43531800   2.27993900   0.59795700
H    4.07130800  -2.25249600   2.04876200
H    2.72382700  -1.04817300   2.55165500
H    3.74626900  -1.74165700  -0.37663000