12

C    1.01208500   0.01231800  -0.06107300
C    2.48139600  -0.03309600   0.02257700
O    3.23558800  -0.47485900  -1.01398200
C    3.34515900   0.90338200  -1.11385700
C    4.49199900   1.53853300  -0.65693000
C    5.49213300   2.13163300  -0.26569600
H    0.60150800   0.80638300   0.57888000
H    0.65875700  -0.94850300   0.36343800
H    0.64363500   0.09056900  -1.09140800
H    2.97574000  -0.05378600   1.00512000
H    2.66557800   1.41663100  -1.80625000
H    6.37845100   2.64986100   0.07555400