12

C    0.88241700   0.04925800  -0.00799000
C    2.37351400   0.05149900   0.00004100
C    3.25094900   1.08927100   0.00457300
C    4.66204400   0.68112600   0.01136200
O    5.66027400   1.34664400   0.01659500
N    4.70251000  -0.74503700   0.01150600
S    3.24092200  -1.46818000   0.00413100
H    0.52000200   1.08466900  -0.00286700
H    0.47955100  -0.46315200   0.87841400
H    0.48980500  -0.45062300  -0.90613300
H    2.97111000   2.14327600   0.00351900
H    5.58182800  -1.26850100   0.01608000