14

C    0.93871000   0.00375800  -0.00913800
C    2.43445300   0.02114900  -0.00000700
C    3.19965300   1.20755100   0.00586600
S    4.89709500   0.95399800   0.01604700
C    4.63465300  -0.77846900   0.01313800
N    5.64043600  -1.63392400   0.01718400
C    3.25114700  -1.10220000   0.00359600
H    0.52305200   1.01849600  -0.01064900
H    0.55638800  -0.52607400   0.87564500
H    0.56722900  -0.52420300  -0.89961800
H    2.81020900   2.22729800   0.00512400
H    5.46673200  -2.63554500   0.01452000
H    6.61095600  -1.33213400   0.02456600
H    2.89199100  -2.13255100   0.00145400