17

C    3.02616000  -0.88812800  -0.77025500
N    3.02481300   0.03346100   0.32508700
C    3.16698100   1.47068900   0.22731500
C    2.32628300   2.20007300   1.26394100
C    4.67027200   1.65078000   0.41833900
C    5.52383400   1.80125100  -0.60019800
H    2.06367300  -1.43255200  -0.77173200
H    3.82354000  -1.63719800  -0.63723200
H    3.14968000  -0.35505400  -1.71941100
H    3.02390900  -0.36227700   1.27106800
H    2.88332700   1.75802300  -0.79581300
H    2.60066900   1.90248700   2.28757500
H    1.25479200   2.01486800   1.10882600
H    2.50951400   3.27883700   1.16798500
H    5.02108900   1.64114800   1.45602100
H    5.19604300   1.79698100  -1.64433700
H    6.58721600   1.97264500  -0.41492000