10

O    1.15527000  -0.09062400  -0.40552400
C    2.35519100  -0.05542200  -0.08750800
N    3.12475900  -1.10724400   0.14432900
C    4.46768600  -0.64648600   0.48930700
O    5.35790300  -1.37093900   0.74476600
C    4.37270400   0.85501200   0.42510800
C    3.13729100   1.22057600   0.08721700
H    2.84389600  -2.08810300   0.09522500
H    5.22929200   1.49753600   0.63610900
H    2.68584600   2.20110400  -0.05825000