20

C    1.29276500  -0.35499100   0.25881300
N    2.53369300   0.17387500  -0.19904600
C    3.06114100   1.48054800   0.06440500
C    2.48270100   2.16991800   1.28524900
C    4.60866500   1.37187100  -0.00427300
C    5.23263000   0.78859700   1.25404200
O    4.82740400   0.56367800  -1.13742000
H    1.12605300  -1.35384500  -0.15699000
H    0.46981000   0.32375800  -0.02960600
H    1.29371000  -0.39581900   1.36311200
H    3.15414800  -0.36363700  -0.82766800
H    2.78037800   2.05374500  -0.85179900
H    2.65526500   1.58649000   2.20111700
H    1.40543500   2.35615700   1.17892700
H    2.97237400   3.14556900   1.40620400
H    4.98514800   2.39624200  -0.17099500
H    4.82072200  -0.20686200   1.48173900
H    5.08212100   1.44459800   2.12240900
H    6.31842800   0.68281000   1.11503700
H    5.76827600   0.44705000  -1.30579000