13

C    5.33249700  -1.11434300  -0.55591500
N    5.40912700   0.14088500  -0.68874900
N    4.76889300   1.09222300  -0.09147300
C    4.85831300   2.35154400  -0.24881800
C    4.03144100   3.30917000   0.52705400
C    4.61688400   4.71781600   0.42096900
O    5.54413700   4.96187200  -0.29458700
H    5.98838100  -1.72863500  -1.18192800
H    4.63640800  -1.57701100   0.15830400
H    5.57922200   2.76699700  -0.97695300
H    3.90924800   2.99327100   1.57593800
H    3.00867100   3.32785800   0.10192400
H    4.11406500   5.49338300   1.03907500