13

C    1.02053700   0.11324800   0.53402700
C    2.22896200   0.02109700  -0.06943500
C    2.89398300  -1.30870700  -0.36085000
C    4.24760700  -1.20870800  -1.04436800
O    4.97482900  -2.05681600  -1.38308200
C    2.83211400   1.28334200  -0.41212500
O    3.94441800   1.43525200  -0.97528000
H    0.55264600   1.08078500   0.73817200
H    0.46428600  -0.77746500   0.84135100
H    2.25958100  -1.93125100  -1.01574000
H    3.05642100  -1.88019800   0.56970200
H    4.38336500   0.52129700  -1.16681700
H    2.30435700   2.21904400  -0.17682400