16

C    1.17394400   0.36422500  -0.01088200
C    2.46811800  -0.28136800   0.36050400
C    3.41201400  -1.18122100  -0.57379500
C    3.16602000  -1.46503400  -1.94693600
C    2.96759600  -1.72771100  -3.11256400
N    3.68951000   0.15435200  -0.17460200
C    3.96716100   1.29710200  -0.99947600
H    1.04146200   1.29700100   0.55872800
H    0.34829100  -0.30852600   0.25728200
H    1.11856000   0.58995400  -1.08431000
H    2.54315600  -0.71500000   1.36763900
H    3.88074500  -1.97060100   0.02912100
H    2.78810900  -1.97209900  -4.14779700
H    3.84743600   2.20490000  -0.39499700
H    3.27398800   1.33438400  -1.85963000
H    4.99261400   1.21042400  -1.38232100