14

C    0.93322600  -0.03383700   0.05465300
C    2.39544700   0.01974200   0.10917500
C    3.15517000   1.15414500  -0.17498900
C    4.53116500   1.14053600  -0.10502000
C    5.76673500   1.15159400  -0.04844000
C    7.20296600   1.15389100   0.01898300
H    0.62722600  -0.83640200  -0.64199500
H    0.46529600   0.91452000  -0.23472500
H    0.54712800  -0.36359300   1.03710700
H    2.93334500  -0.89343800   0.39269200
H    2.65618000   2.08757100  -0.46300100
H    7.61869900   2.14288800  -0.21734500
H    7.60124300   0.40401000  -0.68627900
H    7.52326300   0.84337900   1.02823500