15

C    0.96262700  -1.18929200   0.87212300
C    1.19234600  -0.33380000  -0.32447000
C    0.99893500   1.16174500  -0.41695800
C   -0.25238300   1.58063600   0.37326500
N   -1.32154400   0.65928500   0.17326900
C   -1.28813700  -0.55928800  -0.14544800
N   -0.00780600  -1.14287300  -0.23125100
H    1.50951000  -2.13247900   0.95875800
H    0.61942600  -0.75623800   1.81782200
H    1.89884500  -0.74654100  -1.05739200
H    1.88852400   1.70163500  -0.06365900
H    0.85966300   1.41868600  -1.47728200
H   -0.08129300   1.65001600   1.46064700
H   -0.59354700   2.58216700   0.06085100
H   -2.17359800  -1.18352800  -0.30286500