15

O    1.09648200   0.27429500  -0.56184800
C    2.30096700   0.15157300   0.16506100
C    3.21487400   1.30804600  -0.20660200
C    3.52383800   1.27786700  -1.68763100
O    4.04145300  -0.02495100  -2.09899400
C    3.69972900  -1.10141500  -1.50511200
C    2.85709200  -1.13362700  -0.37872400
H    0.36975900  -0.18426600  -0.12057600
H    2.14094000   0.10417300   1.25229300
H    2.72651700   2.26300200   0.03209100
H    4.14175900   1.24988500   0.38576200
H    4.30246100   1.98540400  -1.99116400
H    2.62680500   1.43464300  -2.30463900
H    4.14102000  -2.00707600  -1.93684300
H    2.54111700  -2.10597200   0.00839000