15

C   -1.49549800   0.50785000   0.66468600
C   -1.29779000  -0.17325700  -0.63007300
O   -0.37013800  -1.21435000  -0.79795000
C    0.83502000  -1.16950500  -0.40727300
C    1.39840300  -0.02844500   0.35685300
C    0.78382800   1.16865700  -0.29709100
C   -0.65184600   1.22904400  -0.37674300
H   -2.50158100   0.89617800   0.83480900
H   -1.01027300   0.11883700   1.56194800
H   -2.11062100  -0.30509300  -1.34435500
H    1.43657500  -2.01365900  -0.76686100
H    1.14618000  -0.11443300   1.43515700
H    2.49304200  -0.05275600   0.28647300
H    1.40488300   1.87197100  -0.85363300
H   -1.09903300   2.05793000  -0.92942800