17

C    0.83125600  -0.19907700   0.03210500
C    2.30982500   0.10431000  -0.10775900
C    2.86809000   1.28212800   0.73530700
N    3.86710500   0.35636400   1.28494600
C    3.29345600  -0.83282500   0.64302800
N    4.52632200   0.43684300   2.41328400
C    5.74457400   0.73232400   2.58927200
H    0.57780200  -1.13308200  -0.48888400
H    0.22817300   0.60459000  -0.41337600
H    0.53878400  -0.30390100   1.08828200
H    2.59005200   0.20706900  -1.16487100
H    2.19928500   1.65611800   1.52790900
H    3.32882900   2.13138600   0.20773500
H    4.03646300  -1.39201500   0.05406400
H    2.83435900  -1.50017900   1.39088300
H    6.11681000   0.76149800   3.61844900
H    6.42114500   0.95256600   1.75070100