18

C    1.70380500   0.17694900  -0.87704800
C    1.98188800  -0.09930100   0.57192900
C    0.56584800  -0.00085200   0.09990300
C   -0.37040100   1.14530200   0.45819300
C   -1.64893400   0.78391700  -0.30213100
N   -1.59864400  -0.64851300  -0.39573200
C   -0.34106500  -1.21414900  -0.00581200
H    1.88944500   1.18404300  -1.25865800
H    1.89863300  -0.62088500  -1.59883300
H    2.36852000  -1.08463800   0.84415400
H    2.35814000   0.71639800   1.19360700
H   -0.57305700   1.16988900   1.54090600
H    0.01819900   2.12780900   0.16409500
H   -2.60723300   1.10297800   0.14142200
H   -1.64886400   1.17170000  -1.34486400
H   -2.39068900  -1.21322700  -0.71601200
H   -0.03900000  -2.01146000  -0.70657000
H   -0.50341000  -1.71303100   0.97831000