13

C    0.97548900  -0.05252300  -0.01003100
C    2.45531300   0.03239000  -0.00723200
C    3.23431300   1.25804400  -0.00388200
N    2.74448100   2.48327300  -0.00335900
S    4.92703900   0.89260500  -0.00001400
C    4.49066000  -0.80290000  -0.00301200
N    3.21589100  -1.07079000  -0.00606800
H    0.47191900   0.92140500  -0.03429700
H    0.64175200  -0.60128300   0.88499100
H    0.64827000  -0.64247200  -0.88043400
H    3.34033700   3.30755000   0.00068200
H    1.73964800   2.63967800  -0.00450900
H    5.27613600  -1.56424800  -0.00121300