13

C    1.00254100  -0.03621600  -0.00678200
C    2.46024700   0.12301400   0.00147700
C    3.28645300   1.23060400   0.00517900
C    4.59791700   0.72959600   0.01187200
O    5.76087000   1.30403000   0.01744100
C    4.47940200  -0.70283100   0.01181100
O    3.20429800  -1.02903600   0.00560600
H    0.50265000   0.93820900  -0.00201500
H    0.68726200  -0.62162400   0.87240200
H    0.69642200  -0.60713600  -0.89883100
H    2.96064200   2.26842800   0.00328100
H    5.71409900   2.27227300   0.01684400
H    5.23320400  -1.49018200   0.01592400