15

C    0.74652700  -0.23524900  -0.46039800
C    1.71077600  -0.16140800   0.50557200
C    2.79570200   0.80283400   0.47054500
C    4.10577400  -0.00830900  -0.16889500
O    4.82423200  -0.52070600   0.61743000
C    4.19336300   0.01946500  -1.63401900
C    5.22069500  -0.57901200  -2.25440800
H   -0.08801000  -0.93520700  -0.36735800
H    0.75606000   0.42172700  -1.33589100
H    1.67945200  -0.85902100   1.34928400
H    3.15578100   1.11792800   1.45636500
H    2.64767600   1.65015600  -0.21353200
H    3.40468500   0.54789200  -2.17235500
H    6.01096200  -1.09437500  -1.70162600
H    5.28936600  -0.56241500  -3.34511000