17

C    4.43450300  -0.56799800  -2.00238300
O    4.42116600  -0.52561200  -0.59023100
C    4.22647800   0.72013200  -0.04453900
C    5.53138400   1.48212500   0.14057200
C    6.79503800   0.71502600   0.31616000
N    5.47750400   2.75579300   0.17477700
N    6.31933600   3.70201500   0.47641100
H    4.57381400  -1.61559000  -2.29204600
H    5.26228100   0.03122100  -2.42662400
H    3.48119500  -0.20316700  -2.42026000
H    3.82402400   0.59325900   0.97798900
H    3.50799600   1.34872200  -0.60242700
H    6.65090400  -0.00454000   1.13710100
H    7.65750000   1.36229200   0.51052600
H    6.96431200   0.10950600  -0.58681200
H    6.32742500   4.03637600   1.44374700
H    6.51968600   4.38765300  -0.25535100