17

C    3.05084300  -1.04171300  -0.59453100
C    2.48807500   0.09600400   0.23211800
N    3.11644100   1.35523100  -0.02522000
C    3.56620600   2.15446100  -1.10950400
C    2.90610700   2.76245800   0.11147100
C    3.70450700   3.53988100   1.13206100
H    2.50287400  -1.96183700  -0.35339600
H    4.11241400  -1.21059200  -0.36824900
H    2.93671900  -0.85379600  -1.67142600
H    2.55933700  -0.07360600   1.32122300
H    1.40493000   0.26311000   0.04140500
H    3.03025100   2.02048700  -2.05761500
H    4.65529700   2.26672100  -1.19956200
H    1.84411100   3.03630900   0.03368200
H    4.74602300   3.19504300   1.17873400
H    3.24505100   3.44328400   2.12482200
H    3.69530300   4.60027700   0.84654700