15

C   -1.72821500   0.72091000   0.26068300
O   -1.51145500  -0.61106000  -0.39264300
C   -0.25355700  -0.72350300   0.11948400
C    1.07760700  -1.02638600  -0.49718600
O    1.85059100   0.03875200   0.04803100
C    1.08756600   1.09595100   0.61753100
C   -0.27551500   0.96164200  -0.07155500
H   -2.48141000   1.26719600  -0.31870400
H   -2.00725300   0.59594600   1.31619100
H   -0.26635200  -0.86763300   1.21413100
H    1.48179200  -1.99087800  -0.15100300
H    1.06927100  -1.00544700  -1.59841600
H    1.00964300   1.01710400   1.71353000
H    1.55441700   2.05433100   0.34331300
H   -0.18316800   1.17671200  -1.14486700