16

C    1.74736100  -0.01446300  -0.54282900
C    0.85324500   0.83900400   0.30993300
C    0.81303100  -0.80434600   0.30280600
N   -0.53624100  -0.90608600  -0.06698400
C   -0.86322400   0.01334400  -1.16706100
C   -0.63271000   1.07434900  -0.04311200
C   -1.31191600   0.02141500   0.87313700
H    1.64755600  -0.01395200  -1.63011100
H    2.78667400  -0.05281200  -0.20914000
H    1.27259100   1.34477100   1.18425100
H    1.11029000  -1.32739600   1.21415300
H   -1.92153500  -0.07876000  -1.43785700
H   -0.23004300  -0.02618800  -2.05688100
H   -1.00391900   2.10193800  -0.13827300
H   -1.00929300  -0.05713800   1.92417400
H   -2.39342700  -0.10585000   0.74596500