18

C    1.10518700   0.08561600   0.10446100
C    2.60305800  -0.02301800  -0.06582800
C    3.01361500  -0.92495000  -1.41076600
N    2.60582900  -2.23173300  -1.28803700
C    3.30217200   1.28628200  -0.30736400
C    4.20632100   1.84365500   0.72162500
O    4.69483400   1.20480000  -0.43454900
H    0.89771100   0.73043500   0.97277300
H    0.63444600  -0.88687500   0.30162800
H    0.62404200   0.54800700  -0.77063000
H    3.07975000  -0.56276600   0.76609900
H    4.11214400  -0.82960500  -1.40422500
H    2.53234400  -0.42752700  -2.26334100
H    3.14647800  -2.90703800  -0.74595200
H    1.71092800  -2.55609000  -1.65561100
H    2.80372200   1.96836200  -1.01027000
H    4.34428100   1.30241500   1.66447600
H    4.34858000   2.92863000   0.76555400