17

C    1.73492100  -0.41158800  -0.16720100
C    3.22657000  -0.52265200  -0.41340500
N    3.81202600   0.78575100  -0.71980700
C    4.99617900   1.18942800  -0.33311900
N    5.68346100   0.41751600   0.53420400
C    5.54969100   2.49952900  -0.72077300
C    5.25236500   3.11253800  -1.87113800
H    1.33157800  -1.40862300   0.05365300
H    1.20359900  -0.03280600  -1.05373700
H    1.51664200   0.24166500   0.68894900
H    3.44919900  -1.20174400  -1.25222600
H    3.76846200  -0.90790200   0.46696300
H    3.25465100   1.43055900  -1.27905200
H    6.68610100   0.31638000   0.33164900
H    6.27001000   2.93293600  -0.02184800
H    4.57928300   2.68775300  -2.62228700
H    5.71011700   4.07371400  -2.11563000