16

C    0.92389500  -0.03183700  -0.39521000
C    1.83130900   0.46379900   0.52979800
C    2.98554400   1.21494600   0.15667600
C    2.42696100   2.85336300   0.33429600
C    3.79397300   3.11602100   0.94872000
C    4.08706300   1.60818800   1.13020600
H    0.07638300  -0.64460000  -0.07684400
H    1.04471900   0.15842700  -1.46635300
H    1.63524200   0.31115900   1.59808800
H    3.28606900   1.12819200  -0.89615800
H    1.57246200   2.92135700   1.01807200
H    2.17391100   3.23015200  -0.66401300
H    4.47585000   3.58437600   0.22709400
H    3.76640300   3.70766100   1.87289200
H    5.08995600   1.28155900   0.82734700
H    3.88009300   1.25660700   2.15006500