14

C    0.86236800   0.08846000   0.16507500
C    2.36740100   0.08746100  -0.03929700
C    3.24646100   1.05519700   0.80738500
C    3.93439900  -0.12939000   1.45366500
O    4.74745700  -0.45129400   2.23548200
N    3.07635300  -1.01676800   0.62237800
O    2.89518000  -2.28211700   0.50672500
H    0.39860300  -0.76720900  -0.34357300
H    0.45668900   1.00893100  -0.27656900
H    0.60246800   0.06557300   1.23272100
H    2.62858300   0.08259900  -1.11176100
H    2.69269200   1.66537100   1.53619900
H    3.93782200   1.69487000   0.24084100
H    3.51697000  -2.75021500   1.10666600