13

C    2.22880400  -1.01992800  -0.44373400
C    3.47741000  -0.29807400  -0.05407800
O    4.48493100  -0.80189100   0.36391000
C    3.46754900   1.22938800  -0.20319100
C    4.58494300   1.91166500   0.14350200
C    4.67828100   3.34500800   0.04112200
O    3.83934900   4.14081500  -0.34352200
H    1.37968000  -0.66116600   0.16018900
H    2.36230700  -2.09717600  -0.29324100
H    1.98749900  -0.81738600  -1.49971100
H    2.56847700   1.72925000  -0.58219000
H    5.46834800   1.38586900   0.51895700
H    5.63689500   3.84978100   0.34563700