17

C    1.93321600  -0.41521200   0.21513500
C    3.36187600  -0.46139600  -0.32221800
N    3.82807700   0.86757900  -0.63235500
C    4.88550900   1.31960100  -0.10001600
N    5.25596500   2.61496500  -0.45823200
C    6.32967700   3.28325000  -0.02602500
C    6.61647900   4.56736000  -0.43924100
H    1.57170400  -1.44030300   0.37142400
H    1.26375600   0.08777100  -0.49556400
H    1.89013500   0.11483200   1.17709300
H    3.36541100  -1.01147900  -1.27896400
H    4.03608200  -0.99022400   0.37557100
H    5.55247100   0.80947800   0.61394800
H    4.60757600   3.05250800  -1.12265800
H    6.97629700   2.75349400   0.67991800
H    5.97499800   5.10271700  -1.14523400
H    7.50475300   5.07483900  -0.05916000