21

C    1.92477000  -0.88471200   2.25517500
C    1.79115400  -0.09618300   0.95660400
C    2.63133200   1.16893800   0.85046900
C    2.04253700   2.34972700   2.02180000
N    0.69386200   2.55126000   1.93336400
N    3.97725000   1.00911100   1.06255100
C    4.98110300   1.96585300   0.66694500
H    1.27573800  -1.76981500   2.22186100
H    1.62868500  -0.29937100   3.13932300
H    2.94670800  -1.26002500   2.42240400
H    0.74332600   0.19791100   0.79400400
H    2.06342900  -0.73286800   0.09963200
H    2.44833600   1.71922600  -0.08513900
H    2.63140300   3.23812800   1.75923900
H    2.34767300   1.92418900   2.98511500
H    0.29603600   3.15861800   1.22620900
H    0.04172300   1.97186500   2.44861000
H    4.26234400   0.29133800   1.72587700
H    5.17810100   2.69574000   1.47320600
H    4.65038800   2.50507200  -0.23028400
H    5.92265200   1.44617900   0.44385300