10

C    0.84937900  -0.00910700   0.01793500
C    2.19059600  -0.00704900  -0.00435900
C    3.07632300  -1.21850300  -0.00363100
O    2.76654500  -2.35336100   0.01592800
C    3.09292300   1.17995000  -0.03439800
O    4.28504200   1.03156100  -0.05242500
H    0.28912200   0.93185400   0.01535300
H    0.27526000  -0.94039500   0.03938700
H    4.17495600  -0.84047900  -0.02669800
H    2.63231600   2.19187000  -0.03938200