15

C    0.73735800  -0.07891400   1.27106400
C    2.08137900  -0.17886500   1.07185000
C    2.77608800   0.67733900   0.11205900
O    4.10822700   0.45757700   0.02823700
C    4.91087600   1.22086000  -0.86711100
C    4.19501900   2.21369600  -1.64637700
C    3.61936100   3.04834600  -2.30729100
H    0.23059200  -0.72504100   1.99161300
H    0.12233100   0.64298800   0.72396800
H    2.67753700  -0.90858600   1.63034000
H    2.55265500   1.76503600   0.31829200
H    2.28558300   0.61249500  -0.90317300
H    5.41856000   0.49049600  -1.52186700
H    5.69715100   1.69000800  -0.24944300
H    3.12326700   3.79662800  -2.90410900