19

C    0.71155500  -0.56060500   0.33900900
C    2.06291600  -0.04963300   0.10775300
C    2.43286700   1.24036000  -0.36077000
C    1.44712600   2.28871900  -0.66454700
C    3.88201200   1.52230800  -0.53223800
C    4.24452800   2.71299700  -1.36990100
C    4.98776700   3.73233700  -0.94030300
H    0.59668400  -1.52818700  -0.18335400
H   -0.10087200   0.11568900   0.05435800
H    0.61452200  -0.82656900   1.41038400
H    2.89003800  -0.73743800   0.32653900
H    0.45959900   2.12891000  -0.21873700
H    1.32509400   2.32598000  -1.76669800
H    1.85148700   3.27879900  -0.39924700
H    4.38483200   0.60275700  -0.89140700
H    4.27550500   1.64256300   0.50295500
H    3.88596400   2.70233800  -2.40566100
H    5.37620300   3.77821200   0.08190700
H    5.24657200   4.55919600  -1.60504800