18

N    2.23695000  -0.60571800  -1.19071300
C    2.37562300  -0.06610100   0.07949800
C    3.23577200   1.30097100  -0.02224500
C    2.54797400   2.54093500  -0.60109000
C    3.14848600   3.33583800   0.59646600
O    4.24439000   4.12938500   0.33511800
C    3.43414200   1.98819200   1.34266100
H    1.48263900  -0.31490200  -1.81482000
H    2.96693300  -1.18823600  -1.60372600
H    2.95548800  -0.73389300   0.73249100
H    1.40231100   0.19890300   0.51317400
H    4.18895400   1.05981900  -0.51659600
H    1.44973800   2.50102100  -0.54856900
H    2.84922000   2.86632000  -1.60651000
H    2.41917200   3.96803900   1.12287900
H    4.89477900   3.67619900  -0.21069100
H    4.42064300   1.87444500   1.81158900
H    2.65001700   1.75440300   2.07628500