15

N    0.66900100   1.37672100   0.46210000
N    1.87393900   0.98346700   0.59607300
C    2.85640300   1.74966800   0.12121100
C    4.17861000   1.31524200   0.27937700
C    5.24511800   2.05958800  -0.18381100
C    6.67674200   1.69416800   0.00307300
O    7.54612700   2.48054000  -0.73158500
H   -0.06450700   0.77310200   0.83337100
H    0.40356900   2.25894000   0.00813400
H    2.63538900   2.70400500  -0.38399100
H    4.33798100   0.35938100   0.78940000
H    5.06227200   3.01476300  -0.69326600
H    6.81150600   0.60401300  -0.14545200
H    6.88989800   1.85670400   1.08127000
H    7.71217700   2.08242000  -1.59134300