14

C    0.78411000   1.36792800   0.27743100
C   -0.67617600   1.24293900  -0.15491400
C   -1.08393300  -0.17148500   0.04699600
O   -0.48330500  -0.90935300   1.02398000
C    0.44284800  -1.02680700   0.02992600
C    1.43260600   0.06157300  -0.17849400
H    1.27216900   2.24780200  -0.15699900
H    0.84825200   1.46058000   1.37178200
H   -0.84319200   1.51110700  -1.21148400
H   -1.38267900   1.86608200   0.42830800
H   -2.03091100  -0.58746200  -0.31942800
H    0.57633600  -2.04807500  -0.34857900
H    2.34276600  -0.22095800   0.38664800
H    1.73049000   0.06929600  -1.24026300