17

C    1.23971100   0.29526400   0.66759400
C    2.43005900  -0.13833000  -0.20820000
C    2.37326400  -1.56410100  -0.76441800
C    3.31093800  -1.55539900  -1.96605800
C    3.14714500  -0.23878200  -2.64090500
O    1.94193700   0.40118000  -2.57758500
C    2.51663400   0.76919000  -1.39669700
H    1.35378200   1.32311900   1.03811900
H    1.19975300  -0.37399000   1.53909400
H    0.29125800   0.21279800   0.11831300
H    3.35845600   0.01139900   0.37125500
H    1.34514100  -1.79442200  -1.08534500
H    2.66085500  -2.31087300  -0.01486300
H    4.37120600  -1.68055500  -1.69175800
H    3.09860100  -2.33449000  -2.72413000
H    3.80086900   0.10799500  -3.45064600
H    2.70064600   1.84705200  -1.30232300