20

C    3.05906800  -1.22346500  -0.65871200
C    2.44792500  -0.01020300   0.01032100
N    2.08477200  -0.23069000   1.36704700
C    3.42416900   1.18137700   0.17448400
C    3.50272700   2.16605600  -1.00895500
C    2.96357900   2.61408000   0.30419700
C    3.71816500   3.57609800   1.18779300
H    3.36808700  -0.95338500  -1.67686500
H    2.33292300  -2.04526600  -0.72317800
H    3.95136900  -1.57264300  -0.11722200
H    1.55967100   0.35660800  -0.52875600
H    1.44645300   0.40585200   1.84708600
H    2.63274900  -0.85903500   1.95977500
H    4.36523800   0.90606400   0.66122300
H    2.81540700   2.00613200  -1.84282400
H    4.52274700   2.43840400  -1.29494900
H    1.87269000   2.73816800   0.30933800
H    4.80257900   3.40047600   1.13410500
H    3.40585700   3.47994500   2.23757100
H    3.52904100   4.61080800   0.87014000