16

O    0.83008100   0.04811100  -0.20852000
C    2.20336500  -0.14571300  -0.27124000
C    2.84071000   1.22703400  -0.09686500
C    4.33909800   1.23241700  -0.13041600
O    4.75462300   0.88157900  -1.53588300
N    5.97775500   0.62775000  -1.71898800
C    6.58867700  -0.39109700  -2.14055700
H    0.37145900  -0.79488200  -0.26623300
H    2.52381300  -0.57798400  -1.24379500
H    2.57619900  -0.82491600   0.52317400
H    2.54972000   1.63741900   0.88382800
H    2.44215300   1.92326100  -0.85068200
H    4.82052900   0.48085700   0.51500300
H    4.77559400   2.22598200   0.04340500
H    7.65926600  -0.28876800  -2.34658500
H    6.05860400  -1.34607100  -2.27472300