11

O    1.04703000  -0.29111600  -0.81095200
C    2.08913900  -0.07355700  -0.34170200
C    3.22286100  -0.81386300   0.48087900
O    3.47245700   0.46743000   1.13498100
C    3.07463900   1.14256200  -0.09701200
C    4.29805800   0.68501200  -0.81772500
C    4.39951600  -0.65410200  -0.42217300
H    3.10944900  -1.68209100   1.13856100
H    2.81511500   2.20280800  -0.00896000
H    4.97286200   1.27204100  -1.44498600
H    5.17430900  -1.38672400  -0.65961900