16

C    0.30827300   0.35578000  -1.09064900
C    1.31344000   0.26472900   0.01535900
C    2.86809900   0.46655200  -0.66498600
O    3.77069800   0.31655700   0.30350300
C    4.24119000   1.39047400   1.12054600
C    3.60889400   2.67185900   0.82647100
N    3.06433000   3.65617700   0.56694800
H   -0.67587000   0.22270800  -0.60015900
H    0.40886700  -0.44479800  -1.83566700
H    0.29471100   1.33708600  -1.58356400
H    1.37850800  -0.71623900   0.50423400
H    1.25277500   1.08170100   0.74821300
H    2.81651400   1.47641400  -1.10486500
H    2.94243200  -0.37856600  -1.36289600
H    5.33320500   1.43126300   0.96554900
H    4.06716100   1.08418800   2.16545500