15

O    1.05080500   1.14944000  -1.40337100
N    2.20780000   1.54748100  -0.83608900
C    3.27033100   0.75459600  -0.91496800
N    3.16650300  -0.44673900  -1.50887100
C    4.55509900   1.23071100  -0.43250400
C    5.62664900   0.20466300  -0.04853600
C    5.79586000   0.95859800  -1.30010800
H    0.33006900   1.36697700  -0.78810300
H    2.29933800   2.54283000  -0.61586500
H    2.21989800  -0.84883100  -1.47224400
H    4.52807700   2.16708000   0.12986000
H    5.35263000  -0.85092200  -0.11356400
H    6.22003200   0.47565700   0.82721000
H    6.50694800   1.78685200  -1.33729300
H    5.62647000   0.43951200  -2.24632000