19

C    1.42193400   0.06621500   0.38254600
C    2.80059700   0.04479200  -0.24014600
C    2.63586200  -0.87929600  -1.72084500
O    3.81592700  -1.17372500  -2.26869600
C    3.37042200   1.32246800  -0.63528400
C    4.48496500   1.90363900   0.37047100
C    4.83361300   1.48000400  -0.98956500
H    1.49135500   0.57656600   1.35576700
H    1.03906300  -0.94612900   0.56665500
H    0.69861200   0.61918700  -0.23398100
H    3.51349200  -0.60187200   0.29404200
H    1.94736600  -0.28315900  -2.33680700
H    2.18006700  -1.77844600  -1.28260300
H    4.04946700  -0.57095000  -2.98813700
H    2.67455400   2.07644000  -1.01667400
H    4.73355700   1.26231700   1.21840900
H    4.32779100   2.95980100   0.60240800
H    5.06089400   2.25389600  -1.72736200
H    5.39122000   0.54095900  -1.08378300