17

C    0.91086500  -0.59171500   0.07181300
C    2.33355600  -0.23343000   0.05149100
C    2.91993900   1.04153600  -0.11641200
C    2.07476100   2.20267800  -0.26260600
C    2.50552500   3.43956800  -0.61271900
C    4.36503200   1.16995100  -0.10352600
C    5.25315800   0.15950100  -0.25090900
H    0.73636800  -1.36600000  -0.69799900
H    0.20719100   0.23204900  -0.07967600
H    0.68607600  -1.10155700   1.02659300
H    3.01959500  -1.07428000   0.19573200
H    1.00399200   2.06804900  -0.10127600
H    3.55003300   3.67096300  -0.83434800
H    1.79294600   4.26210200  -0.70829300
H    4.76741600   2.17743300   0.02232600
H    4.96726200  -0.88333000  -0.40897000
H    6.32543700   0.36773600  -0.23503000