20

C    1.12072500   0.03081100  -0.11008500
C    2.61745800  -0.01782200  -0.14901800
C    3.41056000  -0.54920000  -1.28228700
C    3.40365400   0.95614200  -1.16008900
C    2.63541000   1.79780900  -2.14688500
C    4.58258800   1.66477400  -0.44443300
N    5.59262500   1.68438600  -1.43562600
H    0.75509600   0.92174600   0.42070700
H    0.77257200  -0.84859400   0.45669400
H    0.66256500  -0.01148000  -1.10575200
H    3.09553500  -0.06968000   0.83383300
H    2.87838000  -0.96410600  -2.14266200
H    4.33522100  -1.07645000  -1.02551400
H    1.78263800   1.24384000  -2.55794300
H    3.25417500   2.08093000  -3.01109400
H    2.25701900   2.71742800  -1.67569000
H    4.92174400   1.09659200   0.43063600
H    4.29868600   2.68167900  -0.14445800
H    6.14855100   0.85164300  -1.62001200
H    5.58159400   2.38136300  -2.17775500