12

C    1.19998300  -0.15688100   0.16748600
N    1.98176900   0.63543700  -0.74202500
C    2.83366500   1.66384400  -0.36183600
C    4.23528700   1.07742500   0.23390600
O    5.25875100   1.43715100  -0.21090500
H    1.71278700  -1.11674700   0.37270500
H    0.23109000  -0.39813900  -0.29491000
H    1.04215300   0.38501200   1.10803500
H    2.01428400   0.33262900  -1.71786300
H    2.42877400   2.24538000   0.48401500
H    3.11843000   2.30575600  -1.20436500
H    4.10341400   0.35880900   1.07558600