16

C    0.21350500   0.38611100   0.56803100
C    1.51112600  -0.34144000   0.21920700
C    2.65266500   0.64131500   0.09047800
O    3.90101000  -0.05033500  -0.33559600
C    4.65138400  -0.64851200   0.49355300
N    5.65776200  -1.40310900   0.07513400
O    4.47404400  -0.59945000   1.76423000
H   -0.60907100  -0.33562200   0.65273400
H   -0.06116600   1.11498200  -0.20845800
H    0.29110400   0.91749000   1.52809300
H    1.39972000  -0.88386800  -0.73250900
H    1.74460700  -1.08318500   1.00036600
H    2.87318300   1.17909400   1.02449700
H    2.50228500   1.36680700  -0.71640600
H    5.64712300  -1.77690200  -0.87422400
H    6.37778300  -1.71447500   0.72555800