17

C    1.37613100  -0.27147200  -0.79786500
N    2.57820100   0.04182000  -0.05784300
N    3.21464200   1.14242700  -0.25772500
C    4.30925900   1.36606000   0.45530400
C    5.04962100   2.56492100   0.27422800
C    5.79157300   3.17098700   1.50308200
C    6.59412400   2.52019000   0.47519900
H    1.52588400  -1.20688900  -1.35762800
H    1.16980500   0.55698300  -1.48332500
H    0.54042200  -0.40779000  -0.09517600
H    2.91552800  -0.63931800   0.63667000
H    4.65473000   0.62229500   1.19596000
H    4.65728300   3.25885200  -0.47148000
H    5.64013500   2.67001200   2.46201600
H    5.73680600   4.26137900   1.53627300
H    7.13453900   3.12793700  -0.25394300
H    7.03297200   1.54054700   0.67811200