16

N    1.31857400  -0.00717400   0.57676900
C    2.31632300  -0.80042500   0.46453900
C    3.07596600  -0.87386500  -0.81851400
C    4.57750300  -0.53588500  -0.67196200
C    4.61219800   0.96605400  -1.00321000
C    3.34713700   1.17234300  -1.77143800
O    2.53995400   0.04689800  -1.72577500
H    0.75712000   0.06490100   1.42522400
H    1.07436300   0.56845000  -0.23960800
H    2.58179600  -1.44383200   1.31186500
H    2.92144500  -1.90188800  -1.19711800
H    4.98856400  -0.78736500   0.31502700
H    5.12905100  -1.11857100  -1.42079100
H    5.50578700   1.23534700  -1.58603400
H    4.64385400   1.58474100  -0.08764300
H    3.18022400   1.80527100  -2.64211800