14

C    2.93168200  -1.25525100   0.45635000
N    2.39210000   0.06151300   0.15749000
C    3.12540300   1.16382200   0.07540400
C    2.63178100   2.46876100  -0.21490700
O    3.63229800   3.32094700  -0.21676600
C    4.78290900   2.63743200   0.06183300
C    4.54472400   1.31910600   0.25056000
H    2.11379100  -1.98281000   0.46319900
H    3.41681100  -1.25039700   1.44367300
H    3.66552200  -1.54645600  -0.30971600
H    1.38979300   0.14234100   0.00154600
H    1.63032800   2.84498500  -0.42050800
H    5.69064100   3.23614000   0.08955700
H    5.27859000   0.55271300   0.48401500