20

C    1.01855100   0.04862900  -0.22002600
C    2.50318000   0.14144300  -0.00422700
C    3.02385800   1.11808000   1.03619700
C    4.47893900   0.73124900   1.29224300
C    4.52899000  -0.80708100   1.19034000
C    3.16131200  -1.28692700   0.69338700
N    3.15502800  -2.31311400  -0.20957900
H    0.74263800  -0.71969000  -0.95558900
H    0.67093300   1.01397400  -0.62309400
H    0.47429700  -0.12991900   0.71919800
H    3.05699000   0.23542400  -0.95189500
H    2.41414300   1.04419400   1.95100600
H    2.91094800   2.14431700   0.65113200
H    5.12742700   1.17806800   0.52567200
H    4.83933600   1.09259400   2.26337200
H    5.32547300  -1.14588400   0.51002400
H    4.71929300  -1.29698800   2.15735500
H    2.41701700  -1.46778700   1.48466000
H    3.93936100  -2.46159700  -0.84466300
H    2.33637200  -2.90420400  -0.34644800