11

C   -1.24411100  -0.00279600  -0.14515400
C   -0.38002500  -1.24968600   0.04985800
C    0.99493600  -0.71192500   0.05612500
C    0.91842100   0.67630500  -0.11586200
O   -0.28903300   1.09794100  -0.22942400
H   -1.82059800   0.02412400  -1.07975000
H   -1.91117600   0.23875900   0.69341300
H   -0.50402400  -2.00256300  -0.75145600
H   -0.59496200  -1.79345100   0.98916500
H    1.91802000  -1.28259300   0.17214900
H    1.71838300   1.42044500  -0.16434500