16

C    2.81369500  -0.69556900  -0.82362100
O    2.97909300   0.11347300   0.33005300
C    3.00137500   1.51895900   0.15303500
C    2.23630800   2.23061800   1.23939500
C    4.50300700   1.57290800   0.28819900
N    5.21955500   1.35097400  -0.76963900
O    6.49813400   1.57055200  -0.64104500
H    2.90104500  -1.73671500  -0.49736600
H    3.59071400  -0.45937900  -1.57162900
H    1.82153800  -0.49634000  -1.25974000
H    2.67284300   1.79953800  -0.85915500
H    2.56658400   1.90292200   2.23449700
H    1.16389100   2.02078200   1.13443000
H    2.38870900   3.31517300   1.14513600
H    4.95453600   1.65326700   1.28764600
H    6.92671000   1.24537100  -1.45304500