16

O    1.56246300  -0.20408900   0.97933300
N    2.30754000   0.05156400  -0.04578700
C    2.92406300   1.18427100  -0.18204000
C    2.46304600   2.49068300   0.37906300
C    3.33338400   3.52382600  -0.34817700
C    4.62915700   2.76350700  -0.65918300
C    4.14916800   1.34639800  -1.00986400
H    0.92384600  -0.89744300   0.71852400
H    2.71786500   2.41585700   1.45937900
H    1.37377700   2.63124700   0.32813700
H    2.83307400   3.83905100  -1.27674500
H    3.49362000   4.42321800   0.25950500
H    5.21132200   3.21266800  -1.47292900
H    5.27965800   2.72562800   0.22831700
H    3.79714100   1.29238200  -2.06092000
H    4.87204800   0.52711100  -0.88207200