15

O    1.43214800  -0.70547000   0.37363700
C    2.72529200  -0.33002000   0.12275900
C    2.87803100   1.12388300   0.25264700
C    4.09156000   1.78448300   0.09498200
C    4.21767400   3.19830300   0.23044100
C    5.38872600   3.72985700   1.10652400
O    5.39751900   3.78069800  -0.25826500
H    1.31700800  -1.65429100   0.25456400
H    3.08896500  -0.60013800  -0.90184500
H    3.48004200  -0.81002000   0.79546600
H    1.96961600   1.69715000   0.47954700
H    5.00352100   1.22085100  -0.13919500
H    3.31951900   3.82834500   0.23790600
H    6.08595200   3.03198900   1.58582400
H    5.11854700   4.64077300   1.65682600