14

C    0.99463900   0.02375200  -0.10807600
C    2.43128700   0.01673400  -0.05048800
C    3.66411300  -0.00254100  -0.00089100
C    5.05260300  -0.02681400   0.05433800
C    5.78902700  -1.32385000  -0.03684300
C    5.70593000   1.20303800   0.19689700
H    0.58635000   1.04224100  -0.06003300
H    0.59823000  -0.57737900   0.72858500
H    0.66506700  -0.47143100  -1.03740900
H    5.47029200  -1.99420300   0.77713600
H    6.87418000  -1.17822100   0.01923000
H    5.53913400  -1.83189600  -0.98175800
H    5.14145100   2.13694000   0.26132300
H    6.79783600   1.24887100   0.24626900