18

C    1.17208900   0.10292900   0.15060900
N    2.46810100   0.02349400  -0.42867800
C    3.24975200  -0.76474900  -1.31378400
C    3.39807400   0.73750300  -1.24809400
C    4.57476400   1.40764900  -0.58044900
C    4.25377200   2.72255500   0.07234000
C    5.78488100   0.85206400  -0.64543600
H    1.10946700   0.98853000   0.79651500
H    0.95023900  -0.82290100   0.69778300
H    0.43580500   0.21345400  -0.67162200
H    2.70332500  -1.25323700  -2.13024100
H    4.02518600  -1.37703800  -0.83447700
H    2.89544900   1.34214200  -2.01990100
H    3.83179200   3.43432100  -0.65502600
H    5.15648200   3.17358800   0.50324700
H    3.51798900   2.60177300   0.88377500
H    5.97239400  -0.09642700  -1.15511400
H    6.64990400   1.34948400  -0.20036300