12

C    1.38427600  -0.20131000   0.05927700
C    0.43317900  -1.32864800   0.00108900
C   -0.92009100  -1.07309100  -0.03824400
N   -1.33223300   0.20889300  -0.02252400
C   -0.43069600   1.27549700   0.03181100
N    0.82958600   1.11467100   0.07040200
H    2.06093000  -0.30853400   0.93728500
H    2.12002200  -0.26945300  -0.77384000
H    0.79493100  -2.35922600  -0.01078800
H   -1.68428800  -1.85160500  -0.08170300
H   -2.33104200   0.41613000  -0.05093800
H   -0.88190400   2.27337800   0.03921300