17

C    1.46972600   0.07818900  -1.25965100
C    2.38225200  -0.35062200  -0.13636700
C    3.30504300   0.84011300   0.44875700
N    4.19437600   1.32537300  -0.50983600
C    3.85078500   2.47770100  -1.33444200
N    4.80541900   2.81541600  -2.21156900
O    2.77756700   2.98447500  -1.16247500
H    0.76935400  -0.74767000  -1.46359700
H    2.01009600   0.28545700  -2.19412700
H    0.87171500   0.96222700  -0.99747600
H    3.05429400  -1.17368500  -0.42057200
H    1.82264700  -0.65909700   0.75931900
H    3.87054500   0.38956800   1.27908800
H    2.63019900   1.65078800   0.75683300
H    5.03967300   0.78196900  -0.70810200
H    5.70939600   2.36574600  -2.28247400
H    4.62768300   3.61767700  -2.80867100