19

C    3.46230700  -1.04907100  -0.61863600
C    3.26854200  -0.23383400   0.65325500
C    3.23420100   1.28233700   0.46835400
C    3.10590400   2.14437600   1.72305400
C    3.14204500   3.64991300   1.49506500
C    4.66342600   1.65494700  -0.14345100
O    4.74276200   2.13893900  -1.21202100
H    3.34098400  -2.11864000  -0.40263700
H    4.47220700  -0.92469400  -1.04333900
H    2.72672900  -0.77637900  -1.38941100
H    4.00633800  -0.50199000   1.42671700
H    2.27214100  -0.45225200   1.08290500
H    2.50890800   1.58031500  -0.30446600
H    3.84668600   1.82722700   2.47482600
H    2.11410100   1.85544000   2.12045600
H    4.13667300   3.99835000   1.17087500
H    2.91251000   4.17810500   2.42976800
H    2.40363000   3.96249100   0.74236200
H    5.54159200   1.42368100   0.50791900