14

C    2.11336600  -0.42334400   0.76415800
N    2.70439900   0.07734600  -0.42788800
C    3.10281400   1.44083200  -0.57866400
C    4.46239500   1.69629200   0.12927600
O    4.28214100   1.44728300   1.48235600
H    1.88861900  -1.49127200   0.68126600
H    1.21214900   0.16410400   1.01108200
H    2.83613000  -0.21459700   1.58671300
H    2.99738400  -0.59092700  -1.14644500
H    2.34887700   2.08570000  -0.10265800
H    3.19694600   1.67973100  -1.64638200
H    4.69790300   2.75367900  -0.08938900
H    5.24563300   1.06517500  -0.32859700
H    5.12191600   1.48167500   1.95413900