12

C    0.95320400  -0.03108200  -0.00470600
C    2.17334900  -0.01241100  -0.00138000
C    3.55987500   0.03099800   0.00244600
C    4.43755500   1.17121000   0.00471000
C    5.72427200   0.69543300   0.00833000
C    5.64689900  -0.72750900   0.00833300
N    4.35631900  -1.09590100   0.00482600
H   -0.12680500  -0.04693400  -0.00745500
H    4.09936400   2.20545300   0.00362400
H    6.64735100   1.27120600   0.01079100
H    6.45097700  -1.46375000   0.01066600
H    4.00903200  -2.05137200   0.00401400