17

C    1.02602600   1.06348000  -1.06645400
C    2.49287000   0.97161100  -1.07339100
C    3.28661700   1.04004000   0.06593600
C    4.78309100   0.87396700   0.06742500
C    5.45339300   0.01130400  -0.99424500
C    4.81605600   2.31773000  -0.14201400
C    4.72453200   3.52557800  -0.33079500
H    0.71432400   1.89702500  -1.72279600
H    0.59862900   1.19954900  -0.06562400
H    0.59595800   0.16172700  -1.53731400
H    2.98590400   0.82657000  -2.04192900
H    2.81472500   1.25903800   1.03017400
H    5.13456500   0.63025500   1.07988800
H    5.18175600   0.31376800  -2.01408000
H    5.17634100  -1.04056500  -0.84163600
H    6.54303800   0.09942900  -0.89764200
H    4.67362100   4.59278600  -0.48612800