18

C    0.98578300   0.06898900   0.08581100
C    2.50339100  -0.10290700   0.03449400
N    3.22020600   0.96725800   0.67337900
C    4.31767800   0.55825500   1.50240600
C    4.48653600  -0.93133400   1.19085700
C    3.12787600  -1.33651400   0.66162600
C    2.55196000  -2.53193400   0.73745900
H    0.52235200  -0.73199100  -0.50404300
H    0.67225900   1.02626500  -0.35397700
H    0.62527900  -0.00123200   1.12090300
H    2.81604500  -0.04113800  -1.03881100
H    2.95318400   1.94867200   0.55410400
H    5.19256700   1.20495000   1.31984800
H    4.01424300   0.74744100   2.55519500
H    5.26012300  -1.06611400   0.41702700
H    4.79243500  -1.50758100   2.07225200
H    1.56142300  -2.72637100   0.32090700
H    3.06165000  -3.37034000   1.21710600