15

C    0.87027100   0.32936700   0.69794100
C    2.01514800   0.19376900  -0.01358500
C    3.10670000   1.20102400  -0.01515900
C    2.71335600   2.66918500  -0.35466300
C    3.62334900   3.09793300   0.83071700
O    4.15778300   4.09726500   1.13189200
C    3.66469600   1.64059700   1.37082000
H    0.09585100  -0.44068100   0.66605200
H    0.66337500   1.19962500   1.33016700
H    2.15342500  -0.70349900  -0.62401800
H    3.93219300   0.87872700  -0.66240500
H    1.68123500   2.94070900  -0.07054700
H    2.96944300   3.10901000  -1.32947600
H    4.64898400   1.29311100   1.71682200
H    2.92944500   1.59115800   2.19343000