15

C    2.71041800  -0.83107200  -1.70051300
C    2.11947200  -0.16454100  -0.44804200
C    2.89531600   0.97659400   0.02303100
O    2.32558500   2.04226400   0.36920200
C    3.06303500   3.16617000   0.91323900
C    4.11420200   2.68022400   1.89543600
O    4.81533800   3.31799600   2.57278100
H    2.13187200  -1.73594600  -1.92307600
H    3.75820700  -1.12805600  -1.55126400
H    2.64704800  -0.16417000  -2.57048700
H    2.18483600  -0.87886000   0.40244100
H    1.06234400   0.11805300  -0.55329900
H    3.99588300   0.91977200   0.09888000
H    3.53373400   3.71295400   0.08227200
H    2.31225300   3.79865100   1.40571000