17

C    2.36799100  -1.24318600   0.79344000
C    2.08696200  -0.13329800   0.06479700
C    3.04608300   0.86396500  -0.34569900
C    2.53247300   1.94084000  -1.10097400
C    4.44895900   0.78383100  -0.01465400
C    5.52517600   1.32661200  -0.99227900
C    5.27704500   2.07174600   0.23904700
H    1.57115600  -1.94314400   1.05658400
H    3.37203100  -1.49076600   1.14566400
H    1.05139100   0.03294200  -0.24455700
H    1.46815100   1.98856300  -1.34424900
H    3.16434100   2.75405500  -1.46595300
H    4.76072300  -0.08025400   0.57111200
H    5.17497800   1.72452600  -1.94761800
H    6.40699900   0.68560700  -1.06422300
H    5.97615400   1.97909800   1.07351600
H    4.74234500   3.02366800   0.19929800