15

N    1.02459800   0.51832000  -0.39638300
C    2.38081200   0.15494000   0.14976100
C    3.12596200   1.46250300   0.00840700
C    2.24892600   2.50626900  -0.18053800
C    0.84004900   2.01046900  -0.19394200
N    4.45491900   1.43822700   0.10157500
O    4.96171600   2.66396300   0.00073300
H    0.26942500  -0.03232900   0.02647600
H    1.00329000   0.31604000  -1.40313600
H    2.80896800  -0.67859100  -0.42067600
H    2.26449400  -0.14820300   1.20078000
H    2.52116900   3.55568900  -0.27321400
H    0.31572300   2.16214400   0.76481200
H    0.20651700   2.40998700  -0.99810400
H    5.91986000   2.55300400   0.07779000