13

C    0.94423100  -0.11971900  -0.01035100
C    2.36925400   0.06355300  -0.04151500
C    3.58059500   0.26508800  -0.05606900
C    5.00243000   0.20883200  -0.14961400
O    5.26701800  -0.95954300  -0.46923500
C    5.96289400   1.26118100   0.07177500
C    5.53890700   2.48935100   0.41584300
H    0.45736000   0.54291200  -0.74247800
H    0.55382900   0.08894700   0.99771000
H    0.70783400  -1.16559400  -0.27006200
H    7.01587200   1.00115800  -0.05450300
H    4.47663300   2.72523100   0.53632100
H    6.25414400   3.29794600   0.58719700