19

C    0.74787600  -0.13328500  -0.11361700
C    2.25910300  -0.14337900   0.07336200
C    2.86721400   1.27253000  -0.15415900
C    4.31456600   1.29324400   0.07606600
C    5.23870100   1.63607400  -0.93042900
O    6.51000600   1.67325000  -0.81117700
C    7.21875300   1.36030500   0.40631600
H    0.34519400  -1.14412400   0.03860000
H    0.46880600   0.18874200  -1.12757900
H    0.25766700   0.53744900   0.60718700
H    2.72764800  -0.84600600  -0.63319200
H    2.51835300  -0.48653400   1.08760300
H    2.40094100   1.94586600   0.59201400
H    2.60836800   1.64874200  -1.15520700
H    4.68479200   1.00608900   1.06705700
H    4.89566800   1.91087300  -1.93568600
H    8.27705500   1.49322600   0.16624700
H    7.01719700   0.31834200   0.68847800
H    6.91366600   2.05915100   1.19647600