20

C    0.90646600  -0.15884100   0.01304300
C    2.36443100   0.09884400   0.27175400
C    2.94629300  -0.60237400   1.46664200
C    3.24196700  -1.02779100  -1.31596200
N    2.85258500  -2.29211800  -1.23359800
C    2.87536200   1.38980900  -0.13343800
C    3.99621600   1.98107100   0.34507000
H    0.56485700   0.25791200  -0.94535100
H    0.32381800   0.33791700   0.80841000
H    0.66013300  -1.22897700   0.06278600
H    2.56688400  -0.11267300   2.37966900
H    4.04346000  -0.56557700   1.50803300
H    2.62115400  -1.65124200   1.51120000
H    4.26481000  -0.79910200  -1.01061100
H    2.80188800  -0.42544400  -2.11336500
H    3.35264000  -2.96623800  -0.66185200
H    2.00294300  -2.61770100  -1.68474200
H    2.29191600   1.92336100  -0.89214400
H    4.63012100   1.51893000   1.10605500
H    4.29380600   2.97175700  -0.00549800