9

C    0.98201300  -0.03411700  -0.00078100
C    2.20887000  -0.00087000  -0.00005900
C    3.59684100   0.04164300   0.00076400
N    4.23508900   1.24250800   0.00317000
S    5.80867300   1.00443600   0.00363700
C    5.60628200  -0.78211900   0.00049400
N    4.36814000  -1.10019800  -0.00073000
H   -0.10024000  -0.06457800  -0.00142000
H    6.44936900  -1.48043400  -0.00021600