17

C    1.27932300  -0.28325300   0.70344900
N    2.47098800   0.24823100   0.13367800
C    3.00433600   1.55532800   0.33492400
C    4.49059100   1.55128500  -0.03435100
O    4.60200600   0.68934300  -1.12348400
C    5.89095400   0.60746100  -1.70572000
H    1.52869600  -1.20727000   1.25712400
H    0.59181800  -0.58301100  -0.10793000
H    0.80102600   0.44366900   1.36920600
H    3.02309100  -0.29063300  -0.55763300
H    2.79374100   1.90774600   1.35650200
H    2.44410900   2.22396000  -0.35663700
H    5.09280000   1.20049800   0.82569700
H    4.81050200   2.58039200  -0.27362700
H    5.82705300  -0.10606800  -2.53466700
H    6.63332000   0.25076100  -0.97245100
H    6.20545100   1.58907800  -2.09595900