17

C    1.65812700  -0.49391500   0.19197000
N    2.74250900  -0.06254400  -0.64427600
C    2.95697400  -0.14259300  -2.02389100
C    3.04572500   1.18253400  -1.24581000
C    4.44672700   1.76245700  -1.12830300
C    5.40739200   1.18361400  -0.13608600
N    5.51573100   0.90981500  -1.54622400
H    1.75907100  -0.03587000   1.18353100
H    1.67623600  -1.58911900   0.26430900
H    0.69664000  -0.18239700  -0.25659400
H    2.12923500  -0.46988800  -2.66279400
H    3.99463000  -0.41738200  -2.31473200
H    2.23114100   1.91559100  -1.22859600
H    4.48372900   2.82851000  -1.36860200
H    5.04692800   0.34817600   0.47826200
H    6.14718100   1.83144600   0.34290400
H    6.28238100   1.36844300  -2.03598200