19

C    1.04376100  -0.28812100  -0.27983600
C    2.54289400  -0.19391400  -0.03229300
C    3.08369500   1.25337800  -0.17123800
O    2.52453100   2.09943600   0.78733000
C    4.62616500   1.26440700  -0.02040300
C    5.06315000   2.72160800   0.07218000
O    4.43576100   3.28876900   1.18315200
H    0.72754400  -1.33841700  -0.21338400
H    0.77727000   0.07729100  -1.28205200
H    0.46937200   0.28726700   0.45957000
H    3.10184800  -0.80276600  -0.75855700
H    2.81195200  -0.57313200   0.96837600
H    2.79347600   1.68034200  -1.14218600
H    2.65281200   1.74070700   1.68354800
H    5.09572700   0.76374800  -0.87816900
H    4.91797200   0.72226000   0.89272600
H    4.86259000   3.28560100  -0.85054800
H    6.15559800   2.71966500   0.26605800
H    4.05662100   4.16031300   0.98726400