10

O    0.82646200   0.02749900   0.15679900
S    2.24061800   0.11636400   0.40739100
O    2.89795300   0.02752100   1.68432200
C    3.02983300   1.31704200  -0.66289000
C    3.74333400   0.73667100  -1.63043400
N    3.73544300  -0.67349600  -1.61967900
C    3.15443000  -1.38230800  -0.83175800
H    2.88698400   2.38354300  -0.46921500
H    4.31606100   1.24770100  -2.40712200
H    2.98315000  -2.44211700  -0.59943300