14

C    1.16822800  -0.55840400   0.26091900
C    2.41764700   0.25169000  -0.12694900
C    2.18150600   1.71762600  -0.02275500
C    2.19238800   2.39737300   1.39801500
O    2.48031200   1.76061100   2.34461300
N    1.95956800   2.49051900  -0.99934900
O    1.43004000   3.67170700  -0.92749200
H    1.40779200  -1.62558700   0.16885400
H    0.32432600  -0.33828900  -0.40681100
H    0.86820300  -0.37120100   1.30099700
H    2.72557400   0.02684900  -1.15742400
H    3.24663900   0.01655900   0.55948900
H    1.90164100   3.47582100   1.38505800
H    1.81862900   4.22856800  -1.63250500