15

C    3.76509500  -1.13618100  -0.79375700
C    3.55241900  -0.01725200   0.18640500
O    4.84977800   0.65811100   0.39731500
C    5.04345600   1.65183800   1.16575000
C    4.06760800   2.29697600   1.95886700
C    6.48684400   2.15806100   1.19798900
O    6.76529900   3.08766600   1.89067800
H    2.80158600  -1.64045700  -0.95264900
H    4.47875400  -1.87539100  -0.40686000
H    4.11690300  -0.75694100  -1.76217600
H    3.22522900  -0.37004600   1.17596400
H    2.86155400   0.75393700  -0.18604000
H    3.02055500   1.98664900   1.98262100
H    4.39912600   3.14323100   2.56859400
H    7.19616900   1.60134700   0.54925400