14

O    0.97913600   0.01460800   0.29873500
C    2.16348900  -0.06010400   0.11838000
C    2.97694500   1.17829400  -0.02328400
C    4.29749600   1.31275200  -0.22665000
C    4.65937000   2.75965600  -0.30172700
N    3.40739900   3.42616700  -0.11991600
C    2.32273400   2.52200700   0.05844500
H    2.70978300  -1.02632000   0.04818700
H    5.02978800   0.51091400  -0.32695700
H    5.38573300   3.09450900   0.47158800
H    5.12087500   3.07113700  -1.26491300
H    3.30438100   4.44319600  -0.11762500
H    1.53388800   2.69626800  -0.70756800
H    1.79855800   2.71920600   1.02065400