16

N    1.13717900   0.17526600   0.26530000
C    2.52431000  -0.02327700  -0.07654900
C    2.74678700  -1.44193100  -0.64509300
O    3.56145800  -1.27746900  -1.83991800
C    3.68736100  -0.03828500  -2.15252000
C    2.02741200   0.89953500  -2.39938100
C    2.95329200   0.88157900  -1.25114900
H    0.98773600   1.08506800   0.69813500
H    0.81634000  -0.51791800   0.93913000
H    3.24016900   0.15370000   0.74770200
H    1.80613300  -1.91191100  -0.96623800
H    3.29723800  -2.12489800   0.01213300
H    4.35564500   0.20389100  -2.98414800
H    2.13769400   1.63596700  -3.19972100
H    1.18054600   0.20778500  -2.42754600
H    3.45147300   1.83387900  -1.02675100