15

C    0.96008300  -0.03483100   0.32042900
C    2.41219300  -0.02643200  -0.08670800
C    2.83562200   1.22783300  -0.81997100
O    4.18294000   1.09984800  -1.32868300
C    4.53043300  -0.04547100  -1.81136300
C    3.70307400  -1.17754700  -1.70088900
O    2.64572100  -1.17904100  -0.96522000
H    0.77739800   0.76941700   1.04645600
H    0.71194800  -0.99015700   0.80031600
H    0.30153800   0.11134800  -0.54702500
H    3.06954600  -0.20250700   0.78095900
H    2.84447400   2.09554800  -0.15120100
H    2.18739500   1.44181700  -1.68452100
H    5.50189700  -0.07668100  -2.31233400
H    3.91902400  -2.10901500  -2.23233900