18

C    3.19583700  -1.12467500  -0.56409500
C    2.67673400  -0.03852900   0.36047900
O    3.24670500  -0.06775200   1.64352700
C    2.89599800   1.40921400  -0.11494800
N    2.63328700   2.30671100   0.87917400
C    4.56756100   1.55231900  -0.56216000
O    4.87277700   2.79479300  -0.95689800
H    2.82792500  -0.98376200  -1.59140300
H    2.82637100  -2.10181700  -0.22131600
H    4.29379900  -1.17251600  -0.57076200
H    1.57342400  -0.12986100   0.42166100
H    3.10113300  -0.92230600   2.06345500
H    2.40542800   1.66964500  -1.06399500
H    2.74968700   1.98769300   1.84377500
H    2.40794700   3.27974300   0.69113000
H    4.59202600   0.86581300  -1.41836100
H    5.08963100   1.16897500   0.32726500
H    5.26206600   3.31946700  -0.24576900