17

C    1.31268600  -1.08272200   0.64531900
C    2.54132600  -0.42159200   0.03693700
C    2.22348000   1.07715400  -0.31662500
N    3.35445700   1.69763200  -0.90617100
C    4.27317200   2.53102500  -0.17249600
C    5.51691000   2.75272500  -0.90204000
N    6.49140800   2.91009800  -1.49861500
H    1.56078800  -2.12363800   0.89670900
H    0.46780000  -1.09949200  -0.05758500
H    0.99288100  -0.58087600   1.56954600
H    2.85671500  -0.94128700  -0.88030700
H    3.38901800  -0.43271000   0.73914300
H    1.93969600   1.62412700   0.59382300
H    1.39769000   1.08945700  -1.04676300
H    3.57750600   1.48550900  -1.88620200
H    4.46740600   2.06658700   0.81283000
H    3.77029300   3.49738700   0.03987900