21

C    2.18472100  -1.15465400  -0.70024200
C    1.93140600   0.27359200  -0.17251300
C    3.22433400   0.97751400   0.07126700
C    4.08121800   0.54200800   1.20137500
C    3.73963300   1.94131900  -0.94115200
C    3.00231600   2.85915400  -0.04712300
C    3.61481300   3.71368900   0.98528500
H    1.21928900  -1.62056000  -0.93659700
H    2.68750900  -1.78126300   0.04869800
H    2.79089300  -1.14250700  -1.61732200
H    1.35832700   0.21420200   0.76689300
H    1.32543000   0.82469600  -0.90666900
H    4.92177900   1.21607100   1.40308600
H    4.51386300  -0.43550100   0.91631200
H    3.49776100   0.37169800   2.11808700
H    3.29590100   1.81962100  -1.93718500
H    4.82745700   2.07579900  -0.93942200
H    1.93424200   3.00116400  -0.24413500
H    4.67665300   3.50503800   1.16198100
H    3.05086000   3.68137700   1.93092200
H    3.52601000   4.75679500   0.62453300