18

C    1.09260000  -0.08306300   0.11304200
C    2.56542400   0.00496700   0.01330800
C    3.43604700  -1.05579700  -0.14326900
C    4.85911300  -0.56583100  -0.17812500
N    5.09740300  -0.88320800   1.21121300
C    4.74300700   0.93752800  -0.43040000
C    3.31589200   1.30517400   0.02300300
H    0.72887200  -1.11724700   0.13303800
H    0.62836500   0.44756800  -0.73475800
H    0.74990300   0.44218700   1.02067300
H    3.15972700  -2.11186400  -0.15871200
H    5.56070000  -1.10324300  -0.82644900
H    4.81545800  -0.24029400   1.94803500
H    5.32489200  -1.83258700   1.49980100
H    4.85435000   1.11114300  -1.50959200
H    5.53565900   1.50665000   0.07388100
H    2.83301200   2.04921400  -0.62925800
H    3.27422300   1.74512100   1.03692700