15

N    1.23595500  -0.09623000   0.30316100
N    2.27537800   0.11460100  -0.42741100
C    2.87406900   1.29755900  -0.34394600
C    2.51634400   2.53164700   0.43030200
C    3.39953700   3.58816600  -0.25029700
C    4.53608400   2.75561100  -0.83817600
O    3.95203700   1.43426600  -1.03238700
H    0.77615700  -0.99969300   0.19114000
H    0.86387400   0.56347000   0.99330900
H    2.78947200   2.37235300   1.48949700
H    1.44131100   2.76113700   0.39133200
H    2.83899200   4.09571700  -1.04744300
H    3.76302700   4.35128700   0.44771200
H    4.90254800   3.08362000  -1.81688700
H    5.38883900   2.61666700  -0.15804500