21

C    0.93141500   0.00068400   0.02338900
C    2.45403300  -0.04406700  -0.00654600
C    3.05526500   1.37696500  -0.12628500
C    4.55184100   1.30785100  -0.10434400
O    5.18112600   0.79593900  -1.14704800
C    5.16794100   3.04604700   0.03117100
C    6.65029100   3.07194100   0.08114900
H    0.52772100  -1.01801200   0.10421500
H    0.52258200   0.45401300  -0.89167700
H    0.56263500   0.57566000   0.88551300
H    2.80391500  -0.65741500  -0.85292700
H    2.83816900  -0.52456300   0.90726500
H    2.70324200   1.99732000   0.71024500
H    2.70969500   1.85771500  -1.05821300
H    5.03969600   0.97583600   0.82686800
H    4.64242200   0.82314000  -1.95629500
H    4.64391600   3.32411100   0.95440300
H    4.69916000   3.46438000  -0.86926700
H    7.06095900   2.55423800   0.95879000
H    6.92625000   4.14044700   0.18368300
H    7.11963500   2.69815800  -0.83705900