13

C    1.02356400   0.07498000  -0.02336100
C    2.48690300  -0.01951300  -0.08736400
C    3.31155300  -1.18202500  -0.01767200
C    4.71963600  -0.76715700  -0.12088200
C    4.64474800   0.73483400  -0.25640100
O    5.41742500   1.59462000  -0.37125000
O    3.19078600   1.05456700  -0.21967500
H    0.55456300  -0.91257000   0.04106400
H    0.65444600   0.62053000  -0.90758100
H    0.74309900   0.68394600   0.85344800
H    2.93692300  -2.20067400   0.09327900
H    5.32604100  -1.04605800   0.76174600
H    5.24533900  -1.20807900  -0.98909100