17

C    2.11533900  -0.75279000  -1.34485900
O    2.18920400   0.12726100  -0.20205000
C    3.05057300   1.06077600  -0.12951100
C    2.47536900   3.20862700  -0.40939700
O    3.31620700   3.15962100   0.60700700
C    3.17988300   1.84316700   1.15916200
C    4.37050400   1.48537800   2.01993400
H    2.05930500  -1.77243100  -0.94900300
H    2.99883700  -0.62371200  -1.98416100
H    1.19399000  -0.50684400  -1.88609200
H    3.87482700   1.09981100  -0.86126600
H    1.43396900   2.88543600  -0.26434000
H    2.70942700   3.93929000  -1.18979500
H    2.23423400   1.76628700   1.72541800
H    5.30940600   1.56743200   1.45570200
H    4.25974200   0.46108700   2.40183400
H    4.41168600   2.16954700   2.87829700