14

C    1.08279700   0.01057800  -0.18786400
N    2.51087600   0.00718900   0.04956200
C    3.28403900  -1.20011300   0.30679400
C    4.69386700  -0.62153700   0.47869600
N    4.58095700   0.79876400   0.30789600
C    3.31750700   1.07583900   0.06893700
H    0.86186900  -0.60892300  -1.07005300
H    0.73497800   1.03624200  -0.35443400
H    0.57059800  -0.42279700   0.68429000
H    3.17543000  -1.89264200  -0.54442300
H    2.88580200  -1.70600700   1.20202500
H    5.42852800  -1.00739800  -0.25097100
H    5.14332600  -0.82326400   1.46781300
H    2.93538900   2.08641000  -0.10245000