16

C    1.58589000  -0.55513900   0.86783300
C    2.47118800  -0.15393100  -0.29518800
N    1.76526500   0.11462800  -1.51588100
C    3.14074700   1.22655000  -0.19108800
C    4.31164000   1.45860400  -0.86643800
C    2.47358100   2.25169800   0.52848200
C    1.90388400   3.11897600   1.15493500
H    2.19467400  -0.63405500   1.77864500
H    1.12721100  -1.53241200   0.66770600
H    0.79291300   0.18465700   1.04696700
H    3.23413300  -0.91781800  -0.49297400
H    0.94045800   0.71500500  -1.50552600
H    2.15638900  -0.11285800  -2.42820700
H    4.78462100   0.67614800  -1.46631000
H    4.82555100   2.41920700  -0.78019200
H    1.41081000   3.89683600   1.71565600