15

C    0.88906000  -0.09459600  -0.14836700
C    2.24016100   0.03340500   0.00506400
C    2.94723000   1.34126200   0.26853100
C    4.37365800   1.26462200  -0.26110700
N    4.97816300   0.00942600   0.18309500
N    4.36948900  -1.11418100   0.20459600
C    3.05492500  -1.13335300  -0.02749400
H    0.22825000   0.77599600  -0.12787200
H    0.42822200  -1.07452900  -0.29883000
H    2.42396400   2.17850500  -0.21237000
H    2.94771600   1.54140600   1.35332800
H    5.00473000   2.08747600   0.09533900
H    4.39549300   1.26805100  -1.36566100
H    5.96611900  -0.03259600   0.44365500
H    2.63058300  -2.12900600  -0.18178800