21

C    2.09268700  -0.47382200  -1.39075500
C    2.33128400   0.11864900  -0.00718400
C    3.34383500   1.27286300  -0.06235200
C    2.82240800   2.53036900  -0.81136000
C    3.32249600   3.18019500   0.52106400
C    4.51239100   4.09666800   0.34859400
C    3.62962900   1.89172700   1.34719800
H    1.42658400  -1.34361300  -1.29644500
H    3.02872900  -0.82027100  -1.85172700
H    1.61107000   0.24327900  -2.07114900
H    2.75068700  -0.62774900   0.68601300
H    1.38901600   0.47428700   0.43933700
H    4.33647900   1.04963600  -0.49159200
H    1.73810100   2.54036600  -0.96551700
H    3.36322900   2.84117200  -1.71104100
H    2.41045800   3.60239000   0.98783200
H    5.36009100   3.57719200  -0.12490000
H    4.84329200   4.46443300   1.33003100
H    4.23470900   4.94685000  -0.29026100
H    4.65290300   1.80828300   1.72755600
H    2.88777500   1.61841200   2.10481000