10

C    0.93249500   0.01358300  -0.00028700
C    2.15953200   0.03015700   0.00029900
C    3.54764600   0.04413000   0.00095200
N    4.20516000   1.22797700   0.00207100
S    5.77813200   0.97160900   0.00262200
C    5.70249500  -0.77152000   0.00139200
C    4.40065500  -1.14197400   0.00053200
H   -0.14937700   0.00680600  -0.00084400
H    6.59812100  -1.39484600   0.00137900
H    4.02402700  -2.16475000  -0.00034600