17

C    1.13611800  -0.38108100   0.24153500
C    2.53341400  -0.04032100  -0.28002600
C    2.76386800  -0.68862200  -1.64403000
O    4.14559800  -0.60257700  -1.94528800
C    2.72679400   1.47504500  -0.29990400
C    3.90221800   2.05338400  -1.01984900
O    4.63689400   1.48603900  -1.80039900
H    0.96610300   0.07167200   1.22792200
H    1.01907000  -1.46844200   0.35022400
H    0.35073900  -0.01729400  -0.43919500
H    3.28358900  -0.47363400   0.40158500
H    2.15096000  -0.23377800  -2.44014100
H    2.51574300  -1.76321000  -1.58371600
H    4.31737800  -0.56840800  -2.90033900
H    2.76954700   1.88663800   0.72263900
H    1.86212400   1.99297200  -0.76498500
H    4.11536400   3.13445300  -0.86377900