16

C    1.25728000  -0.25495300   0.19014800
C    2.71608900  -0.52641000  -0.05620700
O    3.43785700   0.74871500   0.05298600
C    4.69409400   0.88743300  -0.09825300
C    5.61902000  -0.13692600  -0.39434200
C    7.05503800   0.11786300  -0.55131400
H    0.70870500  -1.20368900   0.11049900
H    0.85174200   0.44114200  -0.55583900
H    1.09413400   0.15390700   1.19599300
H    2.90953900  -0.91447900  -1.06754200
H    3.15319200  -1.20313000   0.69333400
H    5.03270100   1.92450600   0.02488500
H    5.25658400  -1.16379000  -0.51264100
H    7.33609900   1.16980800  -0.41771600
H    7.38390500  -0.23146400  -1.54797300
H    7.62042500  -0.51170300   0.16107300