18

C    1.12332200   0.03109200   0.10654600
C    2.61925000   0.08751200  -0.32491700
C    3.14946700  -1.26786300  -0.77212400
N    2.74175600   1.10757100  -1.34623900
C    2.58951700   0.80785800  -2.73988300
C    2.95458000   2.47776500  -0.93719900
O    3.10132400   2.74744500   0.21126400
H    0.77603700   1.00290200   0.47994700
H    1.05697700  -0.70051900   0.92300700
H    0.48713200  -0.30532900  -0.72426000
H    3.18085900   0.47429300   0.53958800
H    2.53471600  -1.72603500  -1.55974800
H    3.12638500  -1.94067200   0.09534000
H    4.19246500  -1.19974800  -1.11343300
H    3.46051400   0.21674700  -3.07845200
H    2.51758600   1.72823600  -3.33114100
H    1.69638900   0.17887000  -2.88984500
H    2.95877800   3.19127200  -1.78407400