22

C    0.97380900  -0.07866900   0.04017300
C    2.47823500  -0.06863400  -0.04046500
C    3.04715100  -0.74426200  -1.26267900
C    3.05687600   1.66989500   0.03187600
C    2.64077100   2.32393300  -1.27549800
C    2.41970800   2.25804300   1.28352600
N    4.41319700   1.52737000   0.15415500
H    0.57748400   0.34703200   0.96875600
H    0.67470200  -1.14128800   0.02577200
H    0.49433000   0.39801500  -0.82604300
H    2.93431400  -0.44347600   0.88634600
H    2.62234300  -0.35133300  -2.19697300
H    2.76859700  -1.80936000  -1.20922000
H    4.14309700  -0.70664100  -1.31193900
H    3.18458800   1.91918200  -2.13975100
H    2.85623400   3.40109200  -1.20585000
H    1.56474600   2.20866400  -1.44888200
H    2.59985100   1.63928800   2.17490800
H    1.33917200   2.37713700   1.15008300
H    2.84795500   3.25641300   1.45740300
H    4.84958600   1.38774100   1.06348200
H    5.01471100   1.43761100  -0.66172800