16

C    1.03629100  -0.32683800   0.09150600
N    2.37779400  -0.13459400  -0.36979000
C    3.20588700  -0.55170900  -1.43188600
C    3.15367000   0.87853100  -0.93243900
C    4.44573500   1.29994700  -0.11002700
C    4.49569400   2.74247600   0.27912000
O    5.25690100   0.46299900   0.12141000
H    0.80219800   0.41876500   0.86102800
H    0.93653700  -1.34679100   0.48628500
H    0.34116400  -0.20835800  -0.76098200
H    2.71399300  -0.89020000  -2.35110000
H    4.13804500  -1.06277300  -1.13186200
H    2.62316000   1.69884300  -1.43217800
H    4.53885400   3.35809500  -0.63381500
H    5.38195300   2.92868400   0.89645200
H    3.58071600   3.02142700   0.82359900