15

N    1.02304500  -0.25588400  -0.00466500
C    2.16643600  -0.10254200  -0.02795300
C    3.61599100   0.08910000  -0.03306600
C    4.19872200   1.20924600   0.85569200
C    5.62491500   0.71542600   1.12270700
C    5.45952100  -0.80116200   1.24142300
N    4.31558900  -1.09315400   0.43624300
H    3.94430300   0.23544200  -1.08807100
H    3.61202800   1.27869700   1.78377400
H    4.15438700   2.18032500   0.34871100
H    6.29036900   0.95149700   0.27883500
H    6.06380600   1.15189200   2.02765500
H    6.31327400  -1.43307000   0.93686500
H    5.20896900  -1.12887700   2.27723600
H    3.99275000  -2.04548700   0.22716000