19

C    1.35775900  -0.34507300   2.14739200
C    2.09471600  -0.86683300   0.91671300
C    2.67877000   0.27189200   0.11412800
O    3.36931000  -0.30058400  -1.04842200
C    3.98075000   0.36332900  -1.94817200
C    4.60660900  -0.43031100  -3.03199800
C    4.06687800   1.78807900  -1.92724600
H    0.94030600  -1.18448300   2.71817000
H    0.52214500   0.31591500   1.87214700
H    2.02918800   0.21047700   2.81930100
H    1.41085800  -1.44074300   0.27283100
H    2.90866800  -1.54552100   1.21417200
H    3.42570500   0.84352700   0.68620600
H    1.90204200   0.95015100  -0.27135700
H    4.43474500  -1.50158200  -2.88059800
H    5.68867700  -0.22225300  -3.06356900
H    4.19489800  -0.11519200  -4.00475900
H    3.61538600   2.39297200  -1.13863300
H    4.60525600   2.29608400  -2.73033100