16

C    0.65310900   0.01933900   0.37635900
C    2.10521300  -0.08139400  -0.03435800
N    2.31186500  -0.32838600  -1.45150900
C    3.38770800  -1.11710800  -1.93692200
O    4.21554800  -1.54499200  -1.19383300
C    2.93533600   1.17570100  -0.13484000
C    2.43336700   2.43137300  -0.36965700
H    0.59288300   0.34882200   1.42246600
H    0.17675600  -0.96737500   0.30249500
H    0.08293100   0.72592300  -0.24428900
H    2.64944900  -0.84839000   0.53130600
H    1.63218400   0.04480900  -2.11762200
H    3.34969000  -1.27634400  -3.03278400
H    4.01858800   1.02185100  -0.07915900
H    1.36741600   2.62055200  -0.52545300
H    3.10199300   3.29695400  -0.36421800