12

O    1.47079300   0.19329900   0.88135600
C    2.40823500  -0.14858600   0.20503200
N    2.75983200  -1.29528000  -0.34317300
C    4.03942300  -1.29497000  -1.04175600
C    4.46562800   0.15091900  -0.99881000
O    3.52078700   1.06141800  -1.56129000
C    3.49567500   0.95216700  -0.21294400
H    2.17700700  -2.12499800  -0.24256200
H    4.77113600  -1.92995700  -0.52186100
H    3.92009100  -1.64981400  -2.07653800
H    5.51428000   0.43257200  -1.12623600
H    3.57395800   1.83400000   0.43087500