17

C    1.35403600  -0.34764200   0.35446900
N    2.73041800  -0.00768300   0.48083000
C    3.29879600   1.27530200   0.17757800
C    4.78719200   1.17896200  -0.15817900
C    5.63185800   0.55326000   0.94140800
O    5.12094100  -0.75131700   1.18936900
H    1.01228200  -0.85436200   1.27165300
H    1.24724700  -1.08135100  -0.46850200
H    0.74431300   0.53763900   0.13769200
H    3.43778400  -0.68666700   0.85305600
H    3.14220300   1.90008200   1.08607900
H    2.70782000   1.75279600  -0.62099600
H    5.15105800   2.19633700  -0.36049100
H    4.90988900   0.60514600  -1.08992000
H    5.59137100   1.16790100   1.85886600
H    6.68103700   0.50635700   0.61054400
H    5.67572000  -1.22802400   1.81598400