14

N    0.86534700  -0.02695200   0.43157400
C    2.22156000  -0.38426100   0.52058300
C    3.00271000   0.54427100  -0.41002500
O    2.42094800   1.38361900  -1.04220600
O    4.27859500   0.27188000  -0.38146800
C    5.16788100   1.01575600  -1.16974800
C    6.45658700   0.71797000  -1.12305600
H    0.12208700  -0.49613000   0.95849600
H    0.65657700   0.76011500  -0.21575500
H    2.35704900  -1.45904200   0.26404400
H    2.57029100  -0.32294600   1.57605100
H    4.69489400   1.79615900  -1.76686500
H    6.84086300  -0.08538600  -0.49162400
H    7.15640200   1.29053500  -1.73220800