17

C    2.42784400  -0.42482600   1.54783900
C    2.82601800  -0.02667900   0.12617700
C    3.11168900   1.40957100  -0.06237900
C    4.02991100   1.96743800  -0.96586700
O    4.04773000   3.25548900  -0.95907600
C    3.08569700   3.78328100  -0.00080800
C    2.45290900   2.54671600   0.63890800
H    2.22384800  -1.50229300   1.58440300
H    1.51761400   0.09560900   1.87831900
H    3.23588400  -0.21118600   2.26219300
H    1.98789300  -0.25690200  -0.56614900
H    3.67429600  -0.62338200  -0.24423100
H    4.71420500   1.46239600  -1.65273100
H    2.39205700   4.40982800  -0.57686000
H    3.65572500   4.42082000   0.68716600
H    1.35651600   2.50149200   0.51452000
H    2.63361700   2.48234800   1.72662300