17

C    0.61412200  -0.34050800  -0.35426400
C    2.09271500  -0.23194800  -0.04696600
N    2.87639100  -1.12545600  -0.73483200
C    2.65096400   1.36181400  -0.46389400
C    1.93693500   2.35187900   0.31888300
N    0.91420700   2.93284500  -0.22899200
O    0.36870700   3.84838100   0.55250000
H    0.04732600   0.40336000   0.21849900
H    0.25878600  -1.34267100  -0.07578700
H    0.40865400  -0.17353900  -1.42243200
H    2.33114200  -0.26176400   1.02714700
H    2.61352700  -1.44139200  -1.66638800
H    3.80781500  -1.37869600  -0.41442900
H    2.45002600   1.44418400  -1.53893000
H    3.72240300   1.32550300  -0.23760900
H    2.23191400   2.59605600   1.34915700
H   -0.36232400   4.23169700   0.04483700