12

O    1.12497100  -0.13989500   0.52558300
C    2.24335000   0.14428600  -0.16435300
C    2.43392700  -0.69494700  -1.36297400
C    3.38605700  -0.45384000  -2.32265700
C    2.78182800   1.48035500  -0.09757400
C    3.22398800   2.60169400   0.01052500
H    0.94691800   0.52086200   1.21021800
H    3.13213400  -0.54428600   0.22772000
H    1.81317800  -1.59810000  -1.37879800
H    4.09160300   0.37913900  -2.24031400
H    3.43079700  -1.08596200  -3.21346600
H    3.61187900   3.60517200   0.10054300