12

C    2.11974700  -1.01928100  -0.92520100
C    2.04890400   0.29208600  -0.58138800
C    3.23211600   1.03422600  -0.24707000
C    3.29444100   2.53746100  -1.04566700
N    3.17935000   2.33784600   0.32130800
H    1.21351600  -1.58824000  -1.14521100
H    3.07389700  -1.55221900  -0.97532300
H    1.08770800   0.81525900  -0.55397800
H    4.17629000   0.48711600  -0.14274000
H    2.37971300   2.63701500  -1.63722100
H    4.22771500   2.91849800  -1.47604400
H    4.00382900   2.59373900   0.86994700