17

C    3.36282000  -0.97685700  -1.63481400
C    2.91013100  -0.69581900  -0.26589900
C    1.63042100  -1.12083000   0.17364400
C    3.78149900   0.00884100   0.68682900
C    5.01758600   0.69473300   0.15717100
C    5.00003300   2.13564300  -0.16077600
O    5.55934200   1.63803100   1.03000200
H    3.67476300  -0.02568600  -2.10809100
H    2.62059300  -1.49041700  -2.25551200
H    4.29402100  -1.57397900  -1.59754700
H    0.93227700  -1.60456200  -0.51611600
H    1.31534100  -0.97184400   1.21153500
H    4.09037500  -0.78331900   1.41493400
H    3.19214800   0.69258500   1.32723500
H    5.74812400   0.04854600  -0.34828600
H    4.06774000   2.70332700  -0.04991600
H    5.71043400   2.52945700  -0.89577000