14

C    1.38103500  -0.40560800  -0.86774500
N    2.75391200  -0.18393000  -0.46392700
N    3.25304000   0.98565700  -0.45871800
C    4.53055300   1.14683200  -0.07741900
C    5.45695000   0.06206700   0.35477900
C    4.97019300   2.49422400  -0.11352300
N    5.36851700   3.58583300  -0.12947600
H    1.37165400  -1.09501800  -1.72607600
H    0.93741200   0.55957200  -1.13338300
H    0.83788100  -0.87424100  -0.03259000
H    3.31208100  -1.00369400  -0.18135700
H    5.06262800  -0.45671500   1.24612700
H    6.44052500   0.47220200   0.61051300
H    5.59647900  -0.67781400  -0.45281100