20

C    1.31311200   0.34210100   0.84933900
C    2.62518200   0.47498000   0.06924500
C    2.44198500  -0.00820900  -1.38627800
C    3.77280900   0.13588900  -2.13841200
N    3.68027800   0.07002300  -3.51903500
C    3.12825100   1.88501600   0.02317700
C    4.40431300   2.25764300   0.25235900
H    1.45183600   0.65266600   1.89350100
H    0.96441800  -0.70009200   0.84894100
H    0.52305800   0.96881400   0.40798700
H    3.39145400  -0.16096500   0.54446100
H    1.66745100   0.60273800  -1.88144200
H    2.10842300  -1.05669800  -1.42247900
H    4.56858200  -0.53099100  -1.77378200
H    4.12636100   1.19025900  -1.81955500
H    2.88882000   0.48323200  -4.01268700
H    4.41773300  -0.33508200  -4.09455400
H    2.39661900   2.65274200  -0.26214400
H    5.16052800   1.53538700   0.57747100
H    4.71637500   3.30125100   0.16503400