12

C    1.45692100  -0.25791700   0.04882100
C    0.44617900  -1.33274300  -0.00913100
C   -0.87750400  -1.03323200  -0.10576900
O   -1.30271700   0.23132300  -0.15110300
C   -0.46873500   1.27264900  -0.10532700
C    0.87723100   1.09886800  -0.00866500
H    2.09354900  -0.37094800   0.95605900
H    2.21451400  -0.39206200  -0.75686200
H    0.75117300  -2.38072200   0.02507600
H   -1.69561400  -1.75268700  -0.15445400
H   -0.98969100   2.22949500  -0.15368900
H    1.52387400   1.97813500   0.02591300