17

C    1.03305300  -0.11186500   0.20664300
C    2.46243400   0.17794400  -0.18756500
C    2.83814000  -0.80416200  -1.62719000
N    2.61767300  -2.12393400  -1.38434300
C    2.75928700   1.55045300  -0.59174400
C    3.93364300   2.16044200  -0.32369000
H    0.78923800   0.49027400   1.09567600
H    0.88433300  -1.16696000   0.47289500
H    0.32086200   0.16887900  -0.58427000
H    3.19896200  -0.22002600   0.52585300
H    3.89162300  -0.56765600  -1.80789400
H    2.15179000  -0.37802400  -2.36919400
H    3.33505600  -2.71450800  -0.97063400
H    1.69185800  -2.53437400  -1.47731200
H    1.97461600   2.09596100  -1.12872800
H    4.74692800   1.64049800   0.19287300
H    4.10273100   3.20608800  -0.59170000