17

C   -1.44559700   0.70627900   0.24899600
C   -1.48644400  -0.77810200  -0.09326800
C   -0.29340600  -1.58927500   0.21381000
C    1.02854900  -1.18240200   0.38644800
C    1.60494800   0.08081000   0.14685200
C    0.99984700   1.24498800  -0.32374000
C   -0.43160500   1.53367700  -0.53167700
H   -2.44338300   1.12618000   0.06241500
H   -1.26145300   0.82699400   1.32859000
H   -1.68739800  -0.93926800  -1.17529800
H   -2.34976400  -1.25980600   0.39555700
H   -0.46529200  -2.66787500   0.30865000
H    1.73126200  -1.96624600   0.68409700
H    2.68882300   0.13229700   0.28604900
H    1.68982000   2.05521500  -0.58715500
H   -0.58464900   2.60856600  -0.33801900
H   -0.59762600   1.44915900  -1.62823600