15

C    0.92154800  -0.09230100   0.03269500
C    2.38839000   0.07172700  -0.24120500
O    2.94344400  -1.08400800  -0.88785400
C    3.44475500  -0.72176400  -2.03732700
C    3.26602700   0.65421600  -2.22517900
C    3.64289600   1.54046900  -3.33617600
O    2.64651000   1.13078300  -1.17197400
H    0.54024400   0.82483800   0.50029900
H    0.77831000  -0.93061500   0.72691000
H    0.37352300  -0.28741900  -0.89905200
H    2.98927400   0.26563400   0.66205500
H    3.90988700  -1.47174800  -2.67720100
H    4.31306600   2.33175800  -2.96442900
H    2.74311700   2.03495900  -3.73482200
H    4.14172400   0.98048700  -4.13507300