19

C    1.03269600   0.02463900  -0.15661600
C    2.42759900   0.00555000   0.08796700
C    3.16911200  -1.25898900   0.14861500
C    4.05904800  -1.30311100  -1.15748600
C    4.92605300  -0.05732200  -1.25261100
C    4.10074600   1.21886100  -1.19809800
C    3.21049300   1.24622000   0.10822200
H    0.49377500   0.97172200  -0.25589100
H    0.46277700  -0.90685200  -0.22573000
H    2.51727900  -2.14039400   0.19944600
H    3.86066800  -1.25654900   1.00613400
H    4.65441700  -2.22501500  -1.10019500
H    3.40174800  -1.39379800  -2.03634800
H    5.67799700  -0.05678400  -0.44697800
H    5.48290200  -0.08184300  -2.20352400
H    4.72630200   2.12193900  -1.17017800
H    3.44636400   1.30289600  -2.07979500
H    3.90200200   1.24858500   0.96578200
H    2.58812700   2.14983500   0.13026900