13

O    0.87349800   0.98529100  -0.82645900
N    2.04338300   0.47985600  -0.56442300
C    2.99678300   1.41185500  -0.66687100
C    4.32243500   1.03877400  -0.41698000
C    5.48307100   1.81074500  -1.19962600
C    5.31355300   2.13716400   0.18843400
H    0.22570300   0.26164700  -0.73562700
H    2.71491400   2.43921600  -0.94282000
H    4.51012500  -0.00312600  -0.14887300
H    5.13442800   2.50262000  -1.97003900
H    6.25914400   1.10430900  -1.50641800
H    5.96011700   1.68033200   0.94255900
H    4.83591700   3.07743900   0.47396600