14

C    1.03398400  -0.07969600  -0.00695300
C    2.49259100   0.09433900   0.00101300
C    3.32762500   1.21856900   0.00342900
C    4.63710400   0.76475000   0.01106500
C    4.54180800  -0.65327100   0.01282200
N    5.46285800  -1.59170500   0.01790700
O    3.26152000  -1.03127900   0.00668300
H    0.53231400   0.89426900  -0.00492000
H    0.71458400  -0.65724300   0.87551000
H    0.72345900  -0.64819600  -0.89855300
H    2.98644800   2.25169100  -0.00003800
H    5.55761700   1.34444100   0.01551900
H    5.20010800  -2.57429300   0.01848800
H    6.44892200  -1.35216300   0.02471700